


                               __________________________________________
                              |                                          |
                              |  NUMERICAL ELECTROMAGNETICS CODE (nec2c) |
                              |   Translated to 'C' in Double Precision  |
                              |__________________________________________|



                               ---------------- COMMENTS ----------------
                               2-Meter Stacked Yagi Array - 144 MHz
                               Two 11-element Yagis stacked at lambda/2 spacing
                               Height: 10 meters above ground
                               Feed: Single feedpoint with power divider
                               Designed for EME operation
                              



                               -------- STRUCTURE SPECIFICATION --------
                                     COORDINATES MUST BE INPUT IN
                                     METERS OR BE SCALED TO METERS
                                     BEFORE STRUCTURE INPUT IS ENDED

  WIRE                                                                                 SEG FIRST  LAST  TAG
   No:        X1         Y1         Z1         X2         Y2         Z2       RADIUS   No:   SEG   SEG  No:
     1    -0.72000   -0.52100   10.00000    0.72000   -0.52100   10.00000    0.00600     1     1     1    1
     2    -0.52000   -0.52100   10.00000    0.52000   -0.52100   10.00000    0.00600    11     2    12    2
     3    -0.65000   -0.29600   10.00000    0.65000   -0.29600   10.00000    0.00600     1    13    13    3
     4    -0.62000   -0.07100   10.00000    0.62000   -0.07100   10.00000    0.00600     1    14    14    4
     5    -0.60000    0.15400   10.00000    0.60000    0.15400   10.00000    0.00600     1    15    15    5
     6    -0.58000    0.37900   10.00000    0.58000    0.37900   10.00000    0.00600     1    16    16    6
     7    -0.56000    0.60400   10.00000    0.56000    0.60400   10.00000    0.00600     1    17    17    7
     8    -0.54000    0.82900   10.00000    0.54000    0.82900   10.00000    0.00600     1    18    18    8
     9    -0.52000    1.05400   10.00000    0.52000    1.05400   10.00000    0.00600     1    19    19    9
    10    -0.50000    1.27900   10.00000    0.50000    1.27900   10.00000    0.00600     1    20    20   10
    11    -0.48000    1.50400   10.00000    0.48000    1.50400   10.00000    0.00600     1    21    21   11
    12    -1.50000   -0.52100   10.00000    1.50000   -0.52100   10.00000    0.02500    15    22    36   12
    13    -0.72000    0.52100   10.00000    0.72000    0.52100   10.00000    0.00600     1    37    37   21
    14    -0.52000    0.52100   10.00000    0.52000    0.52100   10.00000    0.00600    11    38    48   22
    15    -0.65000    0.74600   10.00000    0.65000    0.74600   10.00000    0.00600     1    49    49   23
    16    -0.62000    0.97100   10.00000    0.62000    0.97100   10.00000    0.00600     1    50    50   24
    17    -0.60000    1.19600   10.00000    0.60000    1.19600   10.00000    0.00600     1    51    51   25
    18    -0.58000    1.42100   10.00000    0.58000    1.42100   10.00000    0.00600     1    52    52   26
    19    -0.56000    1.64600   10.00000    0.56000    1.64600   10.00000    0.00600     1    53    53   27
    20    -0.54000    1.87100   10.00000    0.54000    1.87100   10.00000    0.00600     1    54    54   28
    21    -0.52000    2.09600   10.00000    0.52000    2.09600   10.00000    0.00600     1    55    55   29
    22    -0.50000    2.32100   10.00000    0.50000    2.32100   10.00000    0.00600     1    56    56   30
    23    -0.48000    2.54600   10.00000    0.48000    2.54600   10.00000    0.00600     1    57    57   31
    24    -1.50000    0.52100   10.00000    1.50000    0.52100   10.00000    0.02500    15    58    72   32
    25     0.00000   -0.52100   10.00000    0.00000    0.52100   10.00000    0.00400     5    73    77   40
    26     0.00000    0.00000    0.00000    0.00000    0.00000   10.00000    0.02500    20    78    97   41

     GROUND PLANE SPECIFIED.
     WHERE WIRE ENDS TOUCH GROUND, CURRENT WILL BE INTERPOLATED TO IMAGE IN GROUND PLANE.


     TOTAL SEGMENTS USED: 97   SEGMENTS IN A SYMMETRIC CELL: 97   SYMMETRY FLAG: 0


                               ---------- SEGMENTATION DATA ----------
                                        COORDINATES IN METERS
                            I+ AND I- INDICATE THE SEGMENTS BEFORE AND AFTER I

   SEG    COORDINATES OF SEGM CENTER     SEGM    ORIENTATION ANGLES    WIRE    CONNECTION DATA   TAG
   No:       X         Y         Z      LENGTH     ALPHA      BETA    RADIUS    I-     I    I+   No:
     1    0.0000   -0.5210   10.0000    1.4400    0.0000    0.0000    0.0060     0     1     0     1
     2   -0.4727   -0.5210   10.0000    0.0945    0.0000    0.0000    0.0060     0     2     3     2
     3   -0.3782   -0.5210   10.0000    0.0945    0.0000    0.0000    0.0060     2     3     4     2
     4   -0.2836   -0.5210   10.0000    0.0945    0.0000    0.0000    0.0060     3     4     5     2
     5   -0.1891   -0.5210   10.0000    0.0945    0.0000    0.0000    0.0060     4     5     6     2
     6   -0.0945   -0.5210   10.0000    0.0945    0.0000    0.0000    0.0060     5     6     7     2
     7   -0.0000   -0.5210   10.0000    0.0945    0.0000    0.0000    0.0060     6     7     8     2
     8    0.0945   -0.5210   10.0000    0.0945    0.0000    0.0000    0.0060     7     8     9     2
     9    0.1891   -0.5210   10.0000    0.0945    0.0000    0.0000    0.0060     8     9    10     2
    10    0.2836   -0.5210   10.0000    0.0945    0.0000    0.0000    0.0060     9    10    11     2
    11    0.3782   -0.5210   10.0000    0.0945    0.0000    0.0000    0.0060    10    11    12     2
    12    0.4727   -0.5210   10.0000    0.0945    0.0000    0.0000    0.0060    11    12     0     2
    13    0.0000   -0.2960   10.0000    1.3000    0.0000    0.0000    0.0060     0    13     0     3
    14    0.0000   -0.0710   10.0000    1.2400    0.0000    0.0000    0.0060     0    14     0     4
    15    0.0000    0.1540   10.0000    1.2000    0.0000    0.0000    0.0060     0    15     0     5
    16    0.0000    0.3790   10.0000    1.1600    0.0000    0.0000    0.0060     0    16     0     6
    17    0.0000    0.6040   10.0000    1.1200    0.0000    0.0000    0.0060     0    17     0     7
    18    0.0000    0.8290   10.0000    1.0800    0.0000    0.0000    0.0060     0    18     0     8
    19    0.0000    1.0540   10.0000    1.0400    0.0000    0.0000    0.0060     0    19     0     9
    20    0.0000    1.2790   10.0000    1.0000    0.0000    0.0000    0.0060     0    20     0    10
    21    0.0000    1.5040   10.0000    0.9600    0.0000    0.0000    0.0060     0    21     0    11
    22   -1.4000   -0.5210   10.0000    0.2000    0.0000    0.0000    0.0250     0    22    23    12
    23   -1.2000   -0.5210   10.0000    0.2000    0.0000    0.0000    0.0250    22    23    24    12
    24   -1.0000   -0.5210   10.0000    0.2000    0.0000    0.0000    0.0250    23    24    25    12
    25   -0.8000   -0.5210   10.0000    0.2000    0.0000    0.0000    0.0250    24    25    26    12
    26   -0.6000   -0.5210   10.0000    0.2000    0.0000    0.0000    0.0250    25    26    27    12
    27   -0.4000   -0.5210   10.0000    0.2000    0.0000    0.0000    0.0250    26    27    28    12
    28   -0.2000   -0.5210   10.0000    0.2000    0.0000    0.0000    0.0250    27    28    29    12
    29   -0.0000   -0.5210   10.0000    0.2000    0.0000    0.0000    0.0250    28    29    30    12
    30    0.2000   -0.5210   10.0000    0.2000    0.0000    0.0000    0.0250    29    30    31    12
    31    0.4000   -0.5210   10.0000    0.2000    0.0000    0.0000    0.0250    30    31    32    12
    32    0.6000   -0.5210   10.0000    0.2000    0.0000    0.0000    0.0250    31    32    33    12
    33    0.8000   -0.5210   10.0000    0.2000    0.0000    0.0000    0.0250    32    33    34    12
    34    1.0000   -0.5210   10.0000    0.2000    0.0000    0.0000    0.0250    33    34    35    12
    35    1.2000   -0.5210   10.0000    0.2000    0.0000    0.0000    0.0250    34    35    36    12
    36    1.4000   -0.5210   10.0000    0.2000    0.0000    0.0000    0.0250    35    36     0    12
    37    0.0000    0.5210   10.0000    1.4400    0.0000    0.0000    0.0060     0    37     0    21
    38   -0.4727    0.5210   10.0000    0.0945    0.0000    0.0000    0.0060     0    38    39    22
    39   -0.3782    0.5210   10.0000    0.0945    0.0000    0.0000    0.0060    38    39    40    22
    40   -0.2836    0.5210   10.0000    0.0945    0.0000    0.0000    0.0060    39    40    41    22
    41   -0.1891    0.5210   10.0000    0.0945    0.0000    0.0000    0.0060    40    41    42    22
    42   -0.0945    0.5210   10.0000    0.0945    0.0000    0.0000    0.0060    41    42    43    22
    43   -0.0000    0.5210   10.0000    0.0945    0.0000    0.0000    0.0060    42    43    44    22
    44    0.0945    0.5210   10.0000    0.0945    0.0000    0.0000    0.0060    43    44    45    22
    45    0.1891    0.5210   10.0000    0.0945    0.0000    0.0000    0.0060    44    45    46    22
    46    0.2836    0.5210   10.0000    0.0945    0.0000    0.0000    0.0060    45    46    47    22
    47    0.3782    0.5210   10.0000    0.0945    0.0000    0.0000    0.0060    46    47    48    22
    48    0.4727    0.5210   10.0000    0.0945    0.0000    0.0000    0.0060    47    48     0    22
    49    0.0000    0.7460   10.0000    1.3000    0.0000    0.0000    0.0060     0    49     0    23
    50    0.0000    0.9710   10.0000    1.2400    0.0000    0.0000    0.0060     0    50     0    24
    51    0.0000    1.1960   10.0000    1.2000    0.0000    0.0000    0.0060     0    51     0    25
    52    0.0000    1.4210   10.0000    1.1600    0.0000    0.0000    0.0060     0    52     0    26
    53    0.0000    1.6460   10.0000    1.1200    0.0000    0.0000    0.0060     0    53     0    27
    54    0.0000    1.8710   10.0000    1.0800    0.0000    0.0000    0.0060     0    54     0    28
    55    0.0000    2.0960   10.0000    1.0400    0.0000    0.0000    0.0060     0    55     0    29
    56    0.0000    2.3210   10.0000    1.0000    0.0000    0.0000    0.0060     0    56     0    30
    57    0.0000    2.5460   10.0000    0.9600    0.0000    0.0000    0.0060     0    57     0    31
    58   -1.4000    0.5210   10.0000    0.2000    0.0000    0.0000    0.0250     0    58    59    32
    59   -1.2000    0.5210   10.0000    0.2000    0.0000    0.0000    0.0250    58    59    60    32
    60   -1.0000    0.5210   10.0000    0.2000    0.0000    0.0000    0.0250    59    60    61    32
    61   -0.8000    0.5210   10.0000    0.2000    0.0000    0.0000    0.0250    60    61    62    32
    62   -0.6000    0.5210   10.0000    0.2000    0.0000    0.0000    0.0250    61    62    63    32
    63   -0.4000    0.5210   10.0000    0.2000    0.0000    0.0000    0.0250    62    63    64    32
    64   -0.2000    0.5210   10.0000    0.2000    0.0000    0.0000    0.0250    63    64    65    32
    65   -0.0000    0.5210   10.0000    0.2000    0.0000    0.0000    0.0250    64    65    66    32
    66    0.2000    0.5210   10.0000    0.2000    0.0000    0.0000    0.0250    65    66    67    32
    67    0.4000    0.5210   10.0000    0.2000    0.0000    0.0000    0.0250    66    67    68    32
    68    0.6000    0.5210   10.0000    0.2000    0.0000    0.0000    0.0250    67    68    69    32
    69    0.8000    0.5210   10.0000    0.2000    0.0000    0.0000    0.0250    68    69    70    32
    70    1.0000    0.5210   10.0000    0.2000    0.0000    0.0000    0.0250    69    70    71    32
    71    1.2000    0.5210   10.0000    0.2000    0.0000    0.0000    0.0250    70    71    72    32
    72    1.4000    0.5210   10.0000    0.2000    0.0000    0.0000    0.0250    71    72     0    32
    73    0.0000   -0.4168   10.0000    0.2084    0.0000   90.0000    0.0040     0    73    74    40
    74    0.0000   -0.2084   10.0000    0.2084    0.0000   90.0000    0.0040    73    74    75    40
    75    0.0000    0.0000   10.0000    0.2084    0.0000   90.0000    0.0040    74    75    76    40
    76    0.0000    0.2084   10.0000    0.2084    0.0000   90.0000    0.0040    75    76    77    40
    77    0.0000    0.4168   10.0000    0.2084    0.0000   90.0000    0.0040    76    77     0    40
    78    0.0000    0.0000    0.2500    0.5000   90.0000    0.0000    0.0250    78    78    79    41
    79    0.0000    0.0000    0.7500    0.5000   90.0000    0.0000    0.0250    78    79    80    41
    80    0.0000    0.0000    1.2500    0.5000   90.0000    0.0000    0.0250    79    80    81    41
    81    0.0000    0.0000    1.7500    0.5000   90.0000    0.0000    0.0250    80    81    82    41
    82    0.0000    0.0000    2.2500    0.5000   90.0000    0.0000    0.0250    81    82    83    41
    83    0.0000    0.0000    2.7500    0.5000   90.0000    0.0000    0.0250    82    83    84    41
    84    0.0000    0.0000    3.2500    0.5000   90.0000    0.0000    0.0250    83    84    85    41
    85    0.0000    0.0000    3.7500    0.5000   90.0000    0.0000    0.0250    84    85    86    41
    86    0.0000    0.0000    4.2500    0.5000   90.0000    0.0000    0.0250    85    86    87    41
    87    0.0000    0.0000    4.7500    0.5000   90.0000    0.0000    0.0250    86    87    88    41
    88    0.0000    0.0000    5.2500    0.5000   90.0000    0.0000    0.0250    87    88    89    41
    89    0.0000    0.0000    5.7500    0.5000   90.0000    0.0000    0.0250    88    89    90    41
    90    0.0000    0.0000    6.2500    0.5000   90.0000    0.0000    0.0250    89    90    91    41
    91    0.0000    0.0000    6.7500    0.5000   90.0000    0.0000    0.0250    90    91    92    41
    92    0.0000    0.0000    7.2500    0.5000   90.0000    0.0000    0.0250    91    92    93    41
    93    0.0000    0.0000    7.7500    0.5000   90.0000    0.0000    0.0250    92    93    94    41
    94    0.0000    0.0000    8.2500    0.5000   90.0000    0.0000    0.0250    93    94    95    41
    95    0.0000    0.0000    8.7500    0.5000   90.0000    0.0000    0.0250    94    95    96    41
    96    0.0000    0.0000    9.2500    0.5000   90.0000    0.0000    0.0250    95    96    97    41
    97    0.0000    0.0000    9.7500    0.5000   90.0000    0.0000    0.0250    96    97     0    41



  DATA CARD No:   1 GN   2     0     0     0  1.30000E+01  5.00000E-03  0.00000E+00  0.00000E+00  0.00000E+00  0.00000E+00
  DATA CARD No:   2 FR   0     1     0     0  1.44000E+02  0.00000E+00  0.00000E+00  0.00000E+00  0.00000E+00  0.00000E+00
  DATA CARD No:   3 EX   0    40     3     0  1.00000E+00  0.00000E+00  0.00000E+00  0.00000E+00  0.00000E+00  0.00000E+00
  DATA CARD No:   4 RP   0    37    73  1000  1.00000E+01  0.00000E+00  5.00000E+00  5.00000E+00  0.00000E+00  0.00000E+00


                               --------- FREQUENCY --------
                                FREQUENCY : 1.4400E+02 MHz
                                WAVELENGTH: 2.0819E+00 Mtr

                        APPROXIMATE INTEGRATION EMPLOYED FOR SEGMENTS 
                        THAT ARE MORE THAN 1.000 WAVELENGTHS APART


                          ------ STRUCTURE IMPEDANCE LOADING ------
                                 THIS STRUCTURE IS NOT LOADED


                            -------- ANTENNA ENVIRONMENT --------
                            FINITE GROUND - SOMMERFELD SOLUTION
                            RELATIVE DIELECTRIC CONST: 13.000
                            CONDUCTIVITY:  5.000E-03 MHOS/METER
                            COMPLEX DIELECTRIC CONSTANT:  1.3000E+01-6.2417E-01j


                             ---------- MATRIX TIMING ----------
                               FILL: 0 msec  FACTOR: 10 msec


                        --------- ANTENNA INPUT PARAMETERS ---------
  TAG   SEG       VOLTAGE (VOLTS)         CURRENT (AMPS)         IMPEDANCE (OHMS)        ADMITTANCE (MHOS)     POWER
  No:   No:     REAL      IMAGINARY     REAL      IMAGINARY     REAL      IMAGINARY    REAL       IMAGINARY   (WATTS)
   40    75  1.0000E+00  0.0000E+00  5.5770E-03 -5.0605E-03  9.8341E+01  8.9233E+01  5.5770E-03 -5.0605E-03  2.7885E-03


                           -------- CURRENTS AND LOCATION --------
                                  DISTANCES IN WAVELENGTHS

   SEG  TAG    COORDINATES OF SEGM CENTER     SEGM    ------------- CURRENT (AMPS) -------------
   No:  No:       X         Y         Z      LENGTH     REAL      IMAGINARY    MAGN        PHASE
     1    1    0.0000   -0.2502    4.8032   0.69166 -2.8156E-05  1.0929E-05  3.0202E-05  158.787
     2    2   -0.2271   -0.2502    4.8032   0.04541 -1.5341E-03  1.4238E-03  2.0930E-03  137.136
     3    2   -0.1816   -0.2502    4.8032   0.04541 -4.4093E-03  4.2628E-03  6.1330E-03  135.967
     4    2   -0.1362   -0.2502    4.8032   0.04541 -7.2841E-03  7.2738E-03  1.0294E-02  135.040
     5    2   -0.0908   -0.2502    4.8032   0.04541 -7.4582E-03  7.5554E-03  1.0616E-02  134.629
     6    2   -0.0454   -0.2502    4.8032   0.04541 -4.2646E-03  4.3838E-03  6.1159E-03  134.210
     7    2   -0.0000   -0.2502    4.8032   0.04541  2.0904E-04 -7.2875E-05  2.2137E-04  -19.220
     8    2    0.0454   -0.2502    4.8032   0.04541  4.6578E-03 -4.5205E-03  6.4908E-03  -44.143
     9    2    0.0908   -0.2502    4.8032   0.04541  7.7801E-03 -7.6661E-03  1.0922E-02  -44.577
    10    2    0.1362   -0.2502    4.8032   0.04541  7.4980E-03 -7.3450E-03  1.0496E-02  -44.410
    11    2    0.1816   -0.2502    4.8032   0.04541  4.5040E-03 -4.2909E-03  6.2207E-03  -43.612
    12    2    0.2271   -0.2502    4.8032   0.04541  1.5541E-03 -1.4276E-03  2.1102E-03  -42.571
    13    3    0.0000   -0.1422    4.8032   0.62442  6.0002E-07 -3.2102E-07  6.8050E-07  -28.148
    14    4    0.0000   -0.0341    4.8032   0.59560 -4.6486E-07  6.2587E-08  4.6906E-07  172.332
    15    5    0.0000    0.0740    4.8032   0.57638 -7.3492E-07  3.7752E-07  8.2621E-07  152.811
    16    6    0.0000    0.1820    4.8032   0.55717 -1.6314E-06  1.4839E-06  2.2053E-06  137.711
    17    7    0.0000    0.2901    4.8032   0.53796 -1.4835E-06  1.4894E-06  2.1021E-06  134.886
    18    8    0.0000    0.3982    4.8032   0.51875 -4.9566E-07  5.2756E-07  7.2387E-07  133.215
    19    9    0.0000    0.5063    4.8032   0.49953 -1.4663E-06 -1.6948E-06  2.2411E-06 -130.866
    20   10    0.0000    0.6143    4.8032   0.48032  1.4910E-06  1.0109E-07  1.4944E-06    3.879
    21   11    0.0000    0.7224    4.8032   0.46111  1.0679E-06  6.3834E-09  1.0679E-06    0.342
    22   12   -0.6724   -0.2502    4.8032   0.09606 -1.4515E-03  1.4075E-03  2.0218E-03  135.881
    23   12   -0.5764   -0.2502    4.8032   0.09606 -2.8938E-03  2.5144E-03  3.8336E-03  139.013
    24   12   -0.4803   -0.2502    4.8032   0.09606 -3.2026E-03  2.3541E-03  3.9747E-03  143.682
    25   12   -0.3843   -0.2502    4.8032   0.09606 -2.4175E-03  1.1862E-03  2.6928E-03  153.864
    26   12   -0.2882   -0.2502    4.8032   0.09606 -5.0953E-04 -8.1017E-04  9.5708E-04 -122.167
    27   12   -0.1921   -0.2502    4.8032   0.09606  4.0843E-03 -5.0667E-03  6.5079E-03  -51.128
    28   12   -0.0961   -0.2502    4.8032   0.09606  8.2454E-03 -9.0502E-03  1.2243E-02  -47.664
    29   12   -0.0000   -0.2502    4.8032   0.09606 -1.8017E-04  6.1219E-05  1.9028E-04  161.233
    30   12    0.0961   -0.2502    4.8032   0.09606 -8.5052E-03  9.1363E-03  1.2482E-02  132.951
    31   12    0.1921   -0.2502    4.8032   0.09606 -4.1292E-03  5.0759E-03  6.5433E-03  129.128
    32   12    0.2882   -0.2502    4.8032   0.09606  5.1473E-04  8.1018E-04  9.5986E-04   57.571
    33   12    0.3843   -0.2502    4.8032   0.09606  2.4231E-03 -1.1818E-03  2.6960E-03  -26.000
    34   12    0.4803   -0.2502    4.8032   0.09606  3.2107E-03 -2.3491E-03  3.9783E-03  -36.191
    35   12    0.5764   -0.2502    4.8032   0.09606  2.9020E-03 -2.5105E-03  3.8372E-03  -40.863
    36   12    0.6724   -0.2502    4.8032   0.09606  1.4559E-03 -1.4057E-03  2.0238E-03  -43.996
    37   21    0.0000    0.2502    4.8032   0.69166  1.5114E-05 -1.5528E-05  2.1670E-05  -45.774
    38   22   -0.2271    0.2502    4.8032   0.04541  1.5403E-03 -1.4222E-03  2.0965E-03  -42.717
    39   22   -0.1816    0.2502    4.8032   0.04541  4.4349E-03 -4.2554E-03  6.1463E-03  -43.817
    40   22   -0.1362    0.2502    4.8032   0.04541  7.3390E-03 -7.2572E-03  1.0321E-02  -44.679
    41   22   -0.0908    0.2502    4.8032   0.04541  7.5394E-03 -7.5303E-03  1.0656E-02  -44.965
    42   22   -0.0454    0.2502    4.8032   0.04541  4.3632E-03 -4.3531E-03  6.1633E-03  -44.934
    43   22   -0.0000    0.2502    4.8032   0.04541 -1.0440E-04  1.0554E-04  1.4845E-04  134.689
    44   22    0.0454    0.2502    4.8032   0.04541 -4.5592E-03  4.5512E-03  6.4421E-03  135.050
    45   22    0.0908    0.2502    4.8032   0.04541 -7.6989E-03  7.6912E-03  1.0882E-02  135.029
    46   22    0.1362    0.2502    4.8032   0.04541 -7.4431E-03  7.3616E-03  1.0469E-02  135.315
    47   22    0.1816    0.2502    4.8032   0.04541 -4.4784E-03  4.2982E-03  6.2073E-03  136.176
    48   22    0.2271    0.2502    4.8032   0.04541 -1.5479E-03  1.4291E-03  2.1068E-03  137.284
    49   23    0.0000    0.3583    4.8032   0.62442 -3.9949E-07  4.0987E-07  5.7235E-07  134.265
    50   24    0.0000    0.4664    4.8032   0.59560  8.0276E-09 -4.0553E-08  4.1340E-08  -78.803
    51   25    0.0000    0.5745    4.8032   0.57638 -2.5342E-07 -4.6914E-08  2.5773E-07 -169.512
    52   26    0.0000    0.6825    4.8032   0.55717 -7.2314E-07 -8.6827E-09  7.2319E-07 -179.312
    53   27    0.0000    0.7906    4.8032   0.53796 -4.6656E-07  3.7015E-07  5.9556E-07  141.573
    54   28    0.0000    0.8987    4.8032   0.51875 -4.9716E-07  2.6202E-07  5.6198E-07  152.209
    55   29    0.0000    1.0068    4.8032   0.49953 -8.5385E-07  1.4843E-07  8.6666E-07  170.139
    56   30    0.0000    1.1148    4.8032   0.48032  3.7527E-07  3.4221E-07  5.0788E-07   42.361
    57   31    0.0000    1.2229    4.8032   0.46111  3.6362E-07  3.0147E-07  4.7233E-07   39.662
    58   32   -0.6724    0.2502    4.8032   0.09606  1.4512E-03 -1.4068E-03  2.0212E-03  -44.109
    59   32   -0.5764    0.2502    4.8032   0.09606  2.8933E-03 -2.5131E-03  3.8323E-03  -40.977
    60   32   -0.4803    0.2502    4.8032   0.09606  3.2019E-03 -2.3526E-03  3.9733E-03  -36.307
    61   32   -0.3843    0.2502    4.8032   0.09606  2.4170E-03 -1.1851E-03  2.6919E-03  -26.119
    62   32   -0.2882    0.2502    4.8032   0.09606  5.1009E-04  8.1086E-04  9.5795E-04   57.827
    63   32   -0.1921    0.2502    4.8032   0.09606 -4.0957E-03  5.0626E-03  6.5119E-03  128.973
    64   32   -0.0961    0.2502    4.8032   0.09606 -8.3067E-03  9.0285E-03  1.2268E-02  132.616
    65   32   -0.0000    0.2502    4.8032   0.09606  9.5449E-05 -9.1158E-05  1.3199E-04  -43.683
    66   32    0.0961    0.2502    4.8032   0.09606  8.4439E-03 -9.1580E-03  1.2457E-02  -47.323
    67   32    0.1921    0.2502    4.8032   0.09606  4.1179E-03 -5.0800E-03  6.5394E-03  -50.972
    68   32    0.2882    0.2502    4.8032   0.09606 -5.1417E-04 -8.0953E-04  9.5902E-04 -122.421
    69   32    0.3843    0.2502    4.8032   0.09606 -2.4237E-03  1.1829E-03  2.6969E-03  153.985
    70   32    0.4803    0.2502    4.8032   0.09606 -3.2115E-03  2.3504E-03  3.9797E-03  143.800
    71   32    0.5764    0.2502    4.8032   0.09606 -2.9026E-03  2.5118E-03  3.8385E-03  139.128
    72   32    0.6724    0.2502    4.8032   0.09606 -1.4561E-03  1.4064E-03  2.0244E-03  135.996
    73   40    0.0000   -0.2002    4.8032   0.10010  2.0578E-03 -2.4856E-03  3.2269E-03  -50.379
    74   40    0.0000   -0.1001    4.8032   0.10010  4.6673E-03 -4.9316E-03  6.7900E-03  -46.577
    75   40    0.0000    0.0000    4.8032   0.10010  5.5770E-03 -5.0605E-03  7.5306E-03  -42.220
    76   40    0.0000    0.1001    4.8032   0.10010  4.6673E-03 -4.9316E-03  6.7900E-03  -46.577
    77   40    0.0000    0.2002    4.8032   0.10010  2.0578E-03 -2.4856E-03  3.2269E-03  -50.379
    78   41    0.0000    0.0000    0.1201   0.24016  6.6041E-09 -5.2052E-09  8.4088E-09  -38.244
    79   41    0.0000    0.0000    0.3602   0.24016 -4.0044E-09  4.9754E-09  6.3867E-09  128.829
    80   41    0.0000    0.0000    0.6004   0.24016 -6.8762E-09  5.6924E-09  8.9267E-09  140.380
    81   41    0.0000    0.0000    0.8406   0.24016  2.9118E-09 -4.4140E-09  5.2879E-09  -56.588
    82   41    0.0000    0.0000    1.0807   0.24016  7.2694E-09 -6.2670E-09  9.5979E-09  -40.765
    83   41    0.0000    0.0000    1.3209   0.24016 -1.7986E-09  3.7189E-09  4.1310E-09  115.810
    84   41    0.0000    0.0000    1.5610   0.24016 -7.5134E-09  6.8256E-09  1.0151E-08  137.746
    85   41    0.0000    0.0000    1.8012   0.24016  6.1324E-10 -2.9247E-09  2.9883E-09  -78.158
    86   41    0.0000    0.0000    2.0414   0.24016  7.5560E-09 -7.3490E-09  1.0540E-08  -44.204
    87   41    0.0000    0.0000    2.2815   0.24016  6.2556E-10  2.0045E-09  2.0999E-09   72.668
    88   41    0.0000    0.0000    2.5217   0.24016 -7.3503E-09  7.8282E-09  1.0738E-08  133.197
    89   41    0.0000    0.0000    2.7618   0.24016 -1.8932E-09 -9.0427E-10  2.0980E-09 -154.468
    90   41    0.0000    0.0000    3.0020   0.24016  6.8106E-09 -8.2367E-09  1.0688E-08  -50.414
    91   41    0.0000    0.0000    3.2422   0.24016  3.1259E-09 -4.8767E-10  3.1637E-09   -8.867
    92   41    0.0000    0.0000    3.4823   0.24016 -5.7678E-09  8.4719E-09  1.0249E-08  124.248
    93   41    0.0000    0.0000    3.7225   0.24016 -4.0957E-09  2.4016E-09  4.7478E-09  149.614
    94   41    0.0000    0.0000    3.9626   0.24016  3.9316E-09 -8.0773E-09  8.9834E-09  -64.046
    95   41    0.0000    0.0000    4.2028   0.24016  3.8256E-09 -5.0292E-09  6.3189E-09  -52.740
    96   41    0.0000    0.0000    4.4430   0.24016 -1.9317E-09  5.4110E-09  5.7455E-09  109.647
    97   41    0.0000    0.0000    4.6831   0.24016 -1.6387E-09  5.3406E-09  5.5864E-09  107.058


                               ---------- POWER BUDGET ---------
                               INPUT POWER   =  2.7885E-03 Watts
                               RADIATED POWER=  2.7885E-03 Watts
                               STRUCTURE LOSS=  0.0000E+00 Watts
                               NETWORK LOSS  =  0.0000E+00 Watts
                               EFFICIENCY    =  100.00 Percent


                             ---------- RADIATION PATTERNS -----------

 ---- ANGLES -----     ----- POWER GAINS -----       ---- POLARIZATION ----   ---- E(THETA) ----    ----- E(PHI) ------
  THETA      PHI       VERTC    HORIZ    TOTAL       AXIAL      TILT  SENSE   MAGNITUDE    PHASE    MAGNITUDE     PHASE
 DEGREES   DEGREES        DB       DB       DB       RATIO   DEGREES            VOLTS/M   DEGREES     VOLTS/M   DEGREES
   10.00      0.00    -59.53     5.75     5.75      0.0001    -89.97 RIGHT   4.3182E-04    -58.65  7.9274E-01    131.59
   15.00      0.00    -62.85     3.81     3.81      0.0001    -89.97 RIGHT   2.9452E-04    -69.98  6.3396E-01    121.03
   20.00      0.00    -73.24    -5.29    -5.29      0.0001    -89.98 RIGHT   8.9022E-05   -129.65  2.2233E-01     62.85
   25.00      0.00    -67.34     4.09     4.09      0.0000    -89.98 RIGHT   1.7554E-04    134.46  6.5503E-01    -35.55
   30.00      0.00    -70.54     4.67     4.67      0.0000    -89.99 RIGHT   1.2152E-04    108.12  7.0024E-01    -55.18
   35.00      0.00    -80.67    -0.88    -0.88      0.0000    -89.99 RIGHT   3.7871E-05    -30.76  3.6941E-01    161.69
   40.00      0.00    -83.16     5.39     5.39      0.0000    -90.00 RIGHT   2.8434E-05   -105.32  7.6064E-01    127.76
   45.00      0.00    -86.53     2.21     2.21      0.0000     90.00 RIGHT   1.9278E-05     32.50  5.2717E-01    -31.61
   50.00      0.00    -82.99     1.23     1.23      0.0000     90.00 RIGHT   2.8972E-05    -52.27  4.7130E-01    -62.84
   55.00      0.00    -77.41     6.59     6.59      0.0000     90.00 RIGHT   5.5111E-05    157.86  8.7270E-01    133.93
   60.00      0.00    -80.01     2.14     2.14      0.0001     90.00 RIGHT   4.0850E-05     13.40  5.2290E-01    -34.94
   65.00      0.00    -81.75    -6.08    -6.08      0.0000     89.99 LEFT    3.3414E-05    -95.96  2.0302E-01    -78.35
   70.00      0.00    -80.60     4.99     4.99      0.0000     90.00 LINEAR  3.8144E-05    125.52  7.2659E-01    129.24
   75.00      0.00    -83.03     7.27     7.27      0.0000     90.00 RIGHT   2.8855E-05    -24.27  9.4459E-01    -46.44
   80.00      0.00    -87.01     6.20     6.20      0.0000     90.00 RIGHT   1.8251E-05   -158.63  8.3525E-01    135.44
   85.00      0.00    -89.50     1.48     1.48      0.0000    -90.00 RIGHT   1.3698E-05     60.10  4.8475E-01    -43.63
   90.00      0.00   -999.99  -188.34  -188.34      0.0000      0.00         1.2572E-15     71.86  1.5649E-10    133.29
   10.00      5.00    -13.87     5.70     5.75      0.0048     84.01 RIGHT   8.2806E-02    134.23  7.8832E-01    131.57
   15.00      5.00    -14.43     3.74     3.81      0.0085     82.98 RIGHT   7.7620E-02    124.96  6.2922E-01    120.97
   20.00      5.00    -21.52    -5.38    -5.27      0.0127     81.17 RIGHT   3.4312E-02     67.56  2.2020E-01     62.76
   25.00      5.00    -12.29     3.99     4.09      0.0271     81.41 RIGHT   9.9334E-02    -25.24  6.4749E-01    -35.67
   30.00      5.00    -11.53     4.56     4.67      0.0192     81.15 RIGHT   1.0847E-01    -48.14  6.9122E-01    -55.34
   35.00      5.00    -16.62    -1.00    -0.88      0.0585     81.19 RIGHT   6.0337E-02   -177.31  3.6442E-01    161.50
   40.00      5.00    -12.14     5.27     5.35      0.0214     82.43 RIGHT   1.0103E-01    136.87  7.5051E-01    127.54
   45.00      5.00    -16.27     2.10     2.16      0.0547     83.86 RIGHT   6.2837E-02     -4.55  5.2064E-01    -31.84
   50.00      5.00    -18.65     1.14     1.18      0.0002     84.15 LEFT    4.7749E-02    -63.21  4.6616E-01    -63.09
   55.00      5.00    -17.33     6.51     6.52      0.0233     86.57 RIGHT   5.5627E-02    155.01  8.6484E-01    133.68
   60.00      5.00    -23.32     2.08     2.09      0.0419     88.07 RIGHT   2.7909E-02     16.11  5.1925E-01    -35.19
   65.00      5.00    -27.88    -6.12    -6.10      0.0129     85.39 LEFT    1.6500E-02    -87.72  2.0201E-01    -78.60
   70.00      5.00    -29.26     4.97     4.97      0.0039     88.91 RIGHT   1.4078E-02    140.58  7.2425E-01    129.00
   75.00      5.00    -33.86     7.26     7.26      0.0063     89.65 RIGHT   8.2899E-03     -0.86  9.4294E-01    -46.68
   80.00      5.00    -39.32     6.20     6.20      0.0052    -89.95 RIGHT   4.4242E-03   -126.19  8.3470E-01    135.21
   85.00      5.00    -42.64     1.48     1.48      0.0037    -89.71 RIGHT   3.0159E-03     99.50  4.8475E-01    -43.86
   90.00      5.00   -999.99  -188.34  -188.34      0.0000      0.00         2.5906E-13    112.41  1.5653E-10    133.07
   10.00     10.00     -7.90     5.56     5.75      0.0094     78.02 RIGHT   1.6471E-01    134.15  7.7513E-01    131.49
   15.00     10.00     -8.49     3.55     3.81      0.0166     75.98 RIGHT   1.5388E-01    124.87  6.1511E-01    120.81
   20.00     10.00    -15.60    -5.63    -5.21      0.0250     72.44 RIGHT   6.7895E-02     67.46  2.1386E-01     62.49
   25.00     10.00     -6.36     3.69     4.10      0.0532     72.78 RIGHT   1.9650E-01    -25.36  6.2511E-01    -36.05
   30.00     10.00     -5.59     4.22     4.65      0.0386     72.20 RIGHT   2.1484E-01    -48.27  6.6437E-01    -55.83
   35.00     10.00    -10.66    -1.36    -0.88      0.1146     72.08 RIGHT   1.1982E-01   -177.46  3.4949E-01    160.90
   40.00     10.00     -6.15     4.91     5.24      0.0442     74.55 RIGHT   2.0145E-01    136.65  7.2000E-01    126.87
   45.00     10.00    -10.22     1.76     2.03      0.1114     77.28 RIGHT   1.2602E-01     -4.85  5.0078E-01    -32.57
   50.00     10.00    -12.54     0.84     1.03      0.0007     77.91 RIGHT   9.6493E-02    -63.66  4.5036E-01    -63.84
   55.00     10.00    -11.13     6.25     6.33      0.0485     82.81 RIGHT   1.1353E-01    154.31  8.4014E-01    132.92
   60.00     10.00    -17.01     1.88     1.93      0.0878     85.87 RIGHT   5.7672E-02     14.97  5.0744E-01    -35.95
   65.00     10.00    -21.45    -6.27    -6.14      0.0301     80.26 LEFT    3.4600E-02    -89.59  1.9856E-01    -79.35
   70.00     10.00    -22.70     4.86     4.87      0.0068     87.63 RIGHT   2.9963E-02    137.56  7.1561E-01    128.26
   75.00     10.00    -27.21     7.19     7.19      0.0127     89.19 RIGHT   1.7828E-02     -5.49  9.3569E-01    -47.40
   80.00     10.00    -32.65     6.16     6.16      0.0115    -89.97 RIGHT   9.5268E-03   -132.57  8.3090E-01    134.51
   85.00     10.00    -36.03     1.46     1.46      0.0092    -89.45 RIGHT   6.4592E-03     91.83  4.8348E-01    -44.55
   90.00     10.00   -999.99  -188.36  -188.36      0.0000      0.00         5.5290E-13    104.27  1.5622E-10    132.38
   10.00     15.00     -4.48     5.31     5.74      0.0138     72.07 RIGHT   2.4400E-01    134.06  7.5354E-01    131.37
   15.00     15.00     -5.11     3.22     3.81      0.0245     69.07 RIGHT   2.2692E-01    124.74  5.9216E-01    120.54
   20.00     15.00    -12.24    -6.06    -5.12      0.0364     63.93 RIGHT   9.9869E-02     67.31  2.0358E-01     62.04
   25.00     15.00     -3.01     3.17     4.10      0.0773     64.12 RIGHT   2.8902E-01    -25.52  5.8869E-01    -36.72
   30.00     15.00     -2.22     3.62     4.63      0.0583     63.10 RIGHT   3.1669E-01    -48.46  6.2043E-01    -56.72
   35.00     15.00     -7.25    -2.00    -0.86      0.1651     62.40 RIGHT   1.7741E-01   -177.71  3.2485E-01    159.83
   40.00     15.00     -2.68     4.28     5.07      0.0696     66.07 RIGHT   3.0028E-01    136.33  6.6895E-01    125.65
   45.00     15.00     -6.68     1.15     1.82      0.1716     69.76 RIGHT   1.8956E-01     -5.32  4.6694E-01    -33.89
   50.00     15.00     -8.89     0.29     0.78      0.0047     70.84 RIGHT   1.4690E-01    -64.35  4.2276E-01    -65.21
   55.00     15.00     -7.35     5.78     5.99      0.0783     78.34 RIGHT   1.7550E-01    153.25  7.9553E-01    131.54
   60.00     15.00    -13.06     1.48     1.63      0.1428     83.08 RIGHT   9.0865E-02     13.32  4.8505E-01    -37.31
   65.00     15.00    -17.31    -6.59    -6.23      0.0538     74.04 LEFT    5.5745E-02    -92.20  1.9156E-01    -80.67
   70.00     15.00    -18.35     4.62     4.64      0.0080     85.96 RIGHT   4.9424E-02    133.47  6.9606E-01    126.98
   75.00     15.00    -22.69     7.01     7.01      0.0197     88.50 RIGHT   2.9996E-02    -11.59  9.1628E-01    -48.64
   80.00     15.00    -28.04     6.02     6.02      0.0198     89.92 RIGHT   1.6203E-02   -140.89  8.1771E-01    133.29
   85.00     15.00    -31.40     1.34     1.34      0.0183    -89.20 RIGHT   1.1004E-02     81.75  4.7724E-01    -45.75
   90.00     15.00   -999.99  -188.46  -188.46      0.0000      0.00         9.4113E-13     93.54  1.5436E-10    131.19
   10.00     20.00     -2.14     4.96     5.74      0.0177     66.21 RIGHT   3.1952E-01    133.95  7.2414E-01    131.20
   15.00     20.00     -2.83     2.75     3.81      0.0318     62.29 RIGHT   2.9529E-01    124.57  5.6121E-01    120.16
   20.00     20.00     -9.99    -6.67    -5.01      0.0467     55.74 RIGHT   1.2949E-01     67.11  1.8976E-01     61.36
   25.00     20.00     -0.76     2.41     4.12      0.0983     55.44 RIGHT   3.7462E-01    -25.75  5.3961E-01    -37.74
   30.00     20.00      0.06     2.74     4.62      0.0782     53.83 RIGHT   4.1162E-01    -48.72  5.6078E-01    -58.10
   35.00     20.00     -4.93    -2.95    -0.82      0.2054     52.03 RIGHT   2.3189E-01   -178.04  2.9099E-01    158.12
   40.00     20.00     -0.28     3.30     4.88      0.0984     56.72 RIGHT   3.9587E-01    135.90  5.9758E-01    123.67
   45.00     20.00     -4.18     0.20     1.55      0.2342     60.64 RIGHT   2.5283E-01     -5.91  4.1852E-01    -36.03
   50.00     20.00     -6.26    -0.59     0.45      0.0158     62.51 RIGHT   1.9890E-01    -65.20  3.8202E-01    -67.42
   55.00     20.00     -4.55     5.00     5.45      0.1171     72.67 RIGHT   2.4216E-01    151.99  7.2695E-01    129.34
   60.00     20.00    -10.07     0.81     1.15      0.2144     79.27 RIGHT   1.2829E-01     11.42  4.4876E-01    -39.45
   65.00     20.00    -14.08    -7.16    -6.35      0.0805     66.08 LEFT    8.0834E-02    -95.08  1.7938E-01    -82.74
   70.00     20.00    -14.88     4.14     4.20      0.0081     83.63 RIGHT   7.3746E-02    129.19  6.5890E-01    125.00
   75.00     20.00    -18.98     6.61     6.62      0.0284     87.47 RIGHT   4.5966E-02    -17.71  8.7504E-01    -50.55
   80.00     20.00    -24.16     5.68     5.68      0.0317     89.67 RIGHT   2.5331E-02   -148.99  7.8598E-01    131.44
   85.00     20.00    -27.43     1.03     1.04      0.0328    -88.93 RIGHT   1.7391E-02     72.06  4.6053E-01    -47.56
   90.00     20.00   -999.99  -188.76  -188.76      0.0000      0.00         1.4920E-12     83.24  1.4915E-10    129.38
   10.00     25.00     -0.41     4.52     5.73      0.0212     60.44 RIGHT   3.9022E-01    133.81  6.8774E-01    130.98
   15.00     25.00     -1.16     2.14     3.81      0.0383     55.68 RIGHT   3.5773E-01    124.36  5.2340E-01    119.65
   20.00     25.00     -8.36    -7.47    -4.89      0.0558     47.95 RIGHT   1.5611E-01     66.86  1.7296E-01     60.44
   25.00     25.00      0.85     1.39     4.14      0.1153     46.81 RIGHT   4.5116E-01    -26.03  4.7986E-01    -39.21
   30.00     25.00      1.70     1.53     4.62      0.0974     44.44 RIGHT   4.9710E-01    -49.05  4.8761E-01    -60.19
   35.00     25.00     -3.23    -4.31    -0.73      0.2301     41.05 RIGHT   2.8182E-01   -178.44  2.4890E-01    155.43
   40.00     25.00      1.50     1.87     4.70      0.1304     46.28 RIGHT   4.8578E-01    135.38  5.0717E-01    120.51
   45.00     25.00     -2.28    -1.21     1.29      0.2925     49.18 RIGHT   3.1436E-01     -6.61  3.5559E-01    -39.49
   50.00     25.00     -4.22    -1.93     0.08      0.0407     52.49 RIGHT   2.5149E-01    -66.16  3.2731E-01    -70.98
   55.00     25.00     -2.33     3.77     4.72      0.1718     65.00 RIGHT   3.1256E-01    150.63  6.3096E-01    125.82
   60.00     25.00     -7.64    -0.29     0.44      0.3153     73.62 RIGHT   1.6968E-01      9.47  3.9536E-01    -42.84
   65.00     25.00    -11.41    -8.13    -6.46      0.0972     55.79 LEFT    1.0993E-01    -97.87  1.6039E-01    -85.96
   70.00     25.00    -11.95     3.29     3.42      0.0097     80.20 RIGHT   1.0330E-01    125.26  5.9698E-01    121.95
   75.00     25.00    -15.81     5.84     5.87      0.0417     85.92 RIGHT   6.6240E-02    -23.01  8.0140E-01    -53.46
   80.00     25.00    -20.78     4.98     4.99      0.0499     89.27 RIGHT   3.7366E-02   -155.73  7.2552E-01    128.65
   85.00     25.00    -23.92     0.38     0.40      0.0554    -88.55 RIGHT   2.6042E-02     64.21  4.2714E-01    -50.29
   90.00     25.00   -999.99  -189.40  -189.40      0.0000      0.00         2.2456E-12     74.96  1.3856E-10    126.68
   10.00     30.00      0.93     3.96     5.72      0.0240     54.81 RIGHT   4.5529E-01    133.64  6.4527E-01    130.72
   15.00     30.00      0.09     1.39     3.80      0.0440     49.30 RIGHT   4.1324E-01    124.11  4.8010E-01    119.02
   20.00     30.00     -7.17    -8.49    -4.77      0.0635     40.63 RIGHT   1.7916E-01     66.55  1.5390E-01     59.20
   25.00     30.00      2.03     0.07     4.17      0.1277     38.36 RIGHT   5.1672E-01    -26.38  4.1211E-01    -41.32
   30.00     30.00      2.90    -0.10     4.66      0.1152     35.04 RIGHT   5.7064E-01    -49.45  4.0418E-01    -63.39
   35.00     30.00     -1.98    -6.19    -0.58      0.2359     29.88 RIGHT   3.2556E-01   -178.91  2.0039E-01    151.05
   40.00     30.00      2.84    -0.17     4.60      0.1630     34.74 RIGHT   5.6682E-01    134.80  4.0119E-01    115.12
   45.00     30.00     -0.83    -3.29     1.13      0.3288     34.97 RIGHT   3.7183E-01     -7.36  2.8004E-01    -45.50
   50.00     30.00     -2.61    -3.95    -0.22      0.0866     40.55 RIGHT   3.0261E-01    -67.17  2.5952E-01    -77.19
   55.00     30.00     -0.55     1.87     3.84      0.2521     53.99 RIGHT   3.8396E-01    149.26  5.0740E-01    119.75
   60.00     30.00     -5.64    -2.03    -0.46      0.4644     63.78 RIGHT   2.1350E-01      7.61  3.2354E-01    -48.59
   65.00     30.00     -9.18    -9.72    -6.43      0.0791     43.23 LEFT    1.4203E-01   -100.39  1.3360E-01    -91.33
   70.00     30.00     -9.49     1.84     2.15      0.0219     74.86 RIGHT   1.3718E-01    121.91  5.0527E-01    116.94
   75.00     30.00    -13.12     4.51     4.58      0.0666     83.54 RIGHT   9.0306E-02    -27.30  6.8717E-01    -58.17
   80.00     30.00    -17.90     3.73     3.76      0.0800     88.76 RIGHT   5.2068E-02   -160.94  6.2807E-01    124.15
   85.00     30.00    -20.91    -0.82    -0.78      0.0910    -87.77 RIGHT   3.6820E-02     58.31  3.7191E-01    -54.66
   90.00     30.00   -999.99  -190.59  -190.58      0.0000      0.00         3.1911E-12     68.81  1.2087E-10    122.35
   10.00     35.00      1.99     3.30     5.70      0.0262     49.31 RIGHT   5.1408E-01    133.46  5.9782E-01    130.42
   15.00     35.00      1.04     0.49     3.79      0.0485     43.18 RIGHT   4.6112E-01    123.81  4.3285E-01    118.25
   20.00     35.00     -6.29    -9.73    -4.67      0.0698     33.82 RIGHT   1.9825E-01     66.19  1.3339E-01     57.57
   25.00     35.00      2.88    -1.61     4.20      0.1353     30.22 RIGHT   5.6975E-01    -26.79  3.3967E-01    -44.38
   30.00     35.00      3.75    -2.26     4.72      0.1302     25.83 RIGHT   6.2997E-01    -49.91  3.1515E-01    -68.57
   35.00     35.00     -1.07    -8.79    -0.39      0.2239     19.10 RIGHT   3.6142E-01   -179.44  1.4862E-01    143.24
   40.00     35.00      3.83    -3.06     4.64      0.1909     22.40 RIGHT   6.3529E-01    134.15  2.8763E-01    104.80
   45.00     35.00      0.28    -6.30     1.14      0.3218     19.04 RIGHT   4.2225E-01     -8.16  1.9803E-01    -57.50
   50.00     35.00     -1.37    -6.93    -0.30      0.1552     26.80 RIGHT   3.4936E-01    -68.19  1.8407E-01    -89.75
   55.00     35.00      0.87    -0.99     3.05      0.3572     37.09 RIGHT   4.5201E-01    147.95  3.6489E-01    107.55
   60.00     35.00     -4.04    -4.73    -1.36      0.6424     39.47 RIGHT   2.5694E-01      5.90  2.3719E-01    -59.94
   65.00     35.00     -7.37   -12.23    -6.14      0.0067     29.73 LEFT    1.7502E-01   -102.58  9.9975E-02   -101.69
   70.00     35.00     -7.46    -0.51     0.28      0.0761     66.10 RIGHT   1.7316E-01    119.15  3.8535E-01    107.47
   75.00     35.00    -10.90     2.29     2.50      0.1255     79.83 RIGHT   1.1656E-01    -30.68  5.3244E-01    -66.93
   80.00     35.00    -15.52     1.61     1.70      0.1365     88.48 RIGHT   6.8453E-02   -164.87  4.9236E-01    115.90
   85.00     35.00    -18.43    -2.88    -2.76      0.1484    -85.63 RIGHT   4.9000E-02     53.97  2.9363E-01    -62.60
   90.00     35.00   -999.99  -192.62  -192.61      0.0000      0.00         4.2648E-12     64.33  9.5662E-11    114.51
   10.00     40.00      2.83     2.52     5.69      0.0276     43.98 RIGHT   5.6621E-01    133.25  5.4648E-01    130.09
   15.00     40.00      1.76    -0.56     3.77      0.0519     37.38 RIGHT   5.0101E-01    123.48  3.8329E-01    117.32
   20.00     40.00     -5.66   -11.22    -4.59      0.0745     27.57 RIGHT   2.1316E-01     65.77  1.1235E-01     55.42
   25.00     40.00      3.46    -3.72     4.22      0.1385     22.58 RIGHT   6.0922E-01    -27.27  2.6655E-01    -48.99
   30.00     40.00      4.33    -5.10     4.80      0.1417     17.06 RIGHT   6.7331E-01    -50.45  2.2732E-01    -77.73
   35.00     40.00     -0.46   -12.25    -0.18      0.1996      9.22 RIGHT   3.8790E-01    179.96  9.9761E-02    127.22
   40.00     40.00      4.51    -6.79     4.82      0.2087      9.94 RIGHT   6.8747E-01    133.46  1.8718E-01     81.38
   45.00     40.00      1.07   -10.00     1.39      0.2713      3.87 RIGHT   4.6236E-01     -8.99  1.2925E-01    -86.05
   50.00     40.00     -0.45   -10.56    -0.05      0.2327     11.78 RIGHT   3.8828E-01    -69.20  1.2120E-01   -120.11
   55.00     40.00      1.94    -4.59     2.81      0.4243     11.87 RIGHT   5.1119E-01    146.70  2.4110E-01     77.96
   60.00     40.00     -2.80    -8.31    -1.72      0.5297     -1.22 RIGHT   2.9624E-01      4.36  1.5703E-01    -87.29
   65.00     40.00     -5.96   -15.77    -5.53      0.1103     16.90 RIGHT   2.0592E-01   -104.47  6.6536E-02   -126.34
   70.00     40.00     -5.88    -3.97    -1.81      0.2746     52.26 RIGHT   2.0784E-01    116.88  2.5875E-01     85.35
   75.00     40.00     -9.16    -1.08    -0.45      0.2997     75.52 RIGHT   1.4248E-01    -33.33  3.6121E-01    -87.01
   80.00     40.00    -13.65    -1.68    -1.41      0.2509    -88.69 RIGHT   8.4911E-02   -167.87  3.3710E-01     97.27
   85.00     40.00    -16.47    -6.11    -5.73      0.2193    -78.14 RIGHT   6.1365E-02     50.74  2.0228E-01    -80.39
   90.00     40.00   -999.99  -195.84  -195.81      0.0000      0.00         5.3588E-12     61.01  6.6043E-11     97.00
   10.00     45.00      3.50     1.61     5.67      0.0282     38.83 RIGHT   6.1153E-01    133.03  4.9238E-01    129.72
   15.00     45.00      2.30    -1.78     3.73      0.0539     31.92 RIGHT   5.3291E-01    123.11  3.3306E-01    116.24
   20.00     45.00     -5.23   -12.98    -4.56      0.0777     21.92 RIGHT   2.2387E-01     65.29  9.1700E-02     52.58
   25.00     45.00      3.82    -6.32     4.22      0.1379     15.59 RIGHT   6.3480E-01    -27.82  1.9746E-01    -56.32
   30.00     45.00      4.67    -8.59     4.87      0.1494      8.98 RIGHT   6.9968E-01    -51.05  1.5207E-01    -95.80
   35.00     45.00     -0.11   -15.47     0.02      0.1703      0.51 RIGHT   4.0391E-01    179.29  6.8867E-02     92.21
   40.00     45.00      4.92    -8.37     5.12      0.2143     -1.75 RIGHT   7.2029E-01    132.71  1.5593E-01     34.97
   45.00     45.00      1.56   -10.26     1.83      0.2027     -8.95 RIGHT   4.8914E-01     -9.84  1.2548E-01   -135.87
   50.00     45.00      0.15   -10.31     0.52      0.2940     -3.47 RIGHT   4.1594E-01    -70.19  1.2483E-01   -170.84
   55.00     45.00      2.67    -4.44     3.44      0.3671    -13.94 RIGHT   5.5573E-01    145.53  2.4526E-01     26.66
   60.00     45.00     -1.93    -8.65    -1.10      0.2504    -21.32 RIGHT   3.2728E-01      2.97  1.5105E-01   -138.76
   65.00     45.00     -4.95   -16.76    -4.67      0.2409      5.06 RIGHT   2.3132E-01   -106.10  5.9362E-02   -177.13
   70.00     45.00     -4.73    -5.61    -2.14      0.8022     31.06 RIGHT   2.3727E-01    114.99  2.1432E-01     36.10
   75.00     45.00     -7.88    -3.24    -1.96      0.5721    -82.37 RIGHT   1.6500E-01    -35.46  2.8163E-01   -134.26
   80.00     45.00    -12.28    -4.20    -3.57      0.2423    -72.63 RIGHT   9.9459E-02   -170.20  2.5205E-01     51.88
   85.00     45.00    -15.04    -8.84    -7.91      0.0500    -63.99 RIGHT   7.2409E-02     48.27  1.4770E-01   -124.47
   90.00     45.00   -999.99  -198.63  -198.56      0.0000      0.00         6.3393E-12     58.49  4.7856E-11     53.38
   10.00     50.00      4.03     0.57     5.64      0.0279     33.86 RIGHT   6.5011E-01    132.80  4.3656E-01    129.34
   15.00     50.00      2.69    -3.18     3.69      0.0543     26.86 RIGHT   5.5719E-01    122.71  2.8367E-01    115.01
   20.00     50.00     -4.97   -15.04    -4.57      0.0791     16.89 RIGHT   2.3061E-01     64.76  7.2355E-02     48.79
   25.00     50.00      3.99    -9.43     4.18      0.1345      9.42 RIGHT   6.4700E-01    -28.43  1.3815E-01    -68.73
   30.00     50.00      4.78   -11.31     4.89      0.1535      1.83 RIGHT   7.0914E-01    -51.73  1.1117E-01   -130.22
   35.00     50.00      0.00   -14.59     0.15      0.1416     -6.92 RIGHT   4.0905E-01    178.55  7.6265E-02     48.97
   40.00     50.00      5.06    -5.46     5.43      0.2105    -11.93 RIGHT   7.3193E-01    131.91  2.1806E-01     -0.65
   45.00     50.00      1.76    -6.73     2.33      0.1399    -19.28 RIGHT   5.0046E-01    -10.74  1.8833E-01   -166.13
   50.00     50.00      0.43    -6.55     1.22      0.3230    -17.39 RIGHT   4.2966E-01    -71.20  1.9233E-01    160.46
   55.00     50.00      3.05    -0.57     4.62      0.2655    -31.53 RIGHT   5.8071E-01    144.39  3.8313E-01     -2.95
   60.00     50.00     -1.44    -4.73     0.23      0.0608    -34.31 RIGHT   3.4637E-01      1.69  2.3710E-01   -170.85
   65.00     50.00     -4.34   -12.90    -3.78      0.3567     -6.34 RIGHT   2.4803E-01   -107.54  9.2597E-02    147.42
   70.00     50.00     -4.01    -1.91     0.18      0.5834    -59.44 RIGHT   2.5760E-01    113.38  3.2826E-01     -2.96
   75.00     50.00     -7.07     0.23     0.97      0.2519    -70.60 RIGHT   1.8112E-01    -37.23  4.1998E-01   -176.57
   80.00     50.00    -11.40    -0.97    -0.60      0.0039    -73.24 LEFT    1.1012E-01   -172.10  3.6552E-01      7.09
   85.00     50.00    -14.10    -5.80    -5.20      0.2109    -72.13 LEFT    8.0610E-02     46.30  2.0977E-01   -170.79
   90.00     50.00   -999.99  -195.65  -195.61      0.0000      0.00         7.0706E-12     56.49  6.7448E-11      6.56
   10.00     55.00      4.45    -0.64     5.62      0.0269     29.09 RIGHT   6.8222E-01    132.56  3.7994E-01    128.94
   15.00     55.00      2.95    -4.76     3.63      0.0532     22.20 RIGHT   5.7455E-01    122.29  2.3641E-01    113.62
   20.00     55.00     -4.86   -17.41    -4.62      0.0786     12.53 RIGHT   2.3380E-01     64.19  5.5105E-02     43.72
   25.00     55.00      3.99   -12.59     4.08      0.1288      4.20 RIGHT   6.4716E-01    -29.11  9.5937E-02    -89.96
   30.00     55.00      4.71   -10.65     4.83      0.1544     -4.16 RIGHT   7.0305E-01    -52.49  1.1999E-01   -167.06
   35.00     55.00     -0.11   -11.84     0.17      0.1173    -13.01 RIGHT   4.0382E-01    177.73  1.0457E-01     26.20
   40.00     55.00      4.94    -2.62     5.65      0.2021    -20.21 RIGHT   7.2250E-01    131.02  3.0257E-01    -15.95
   45.00     55.00      1.67    -3.90     2.73      0.0931    -27.41 RIGHT   4.9568E-01    -11.69  2.6087E-01   -178.75
   50.00     55.00      0.40    -3.66     1.84      0.3251    -28.69 RIGHT   4.2814E-01    -72.23  2.6832E-01    148.57
   55.00     55.00      3.09     2.45     5.79      0.1906    -42.76 RIGHT   5.8329E-01    143.27  5.4237E-01    -15.08
   60.00     55.00     -1.32    -1.55     1.58      0.0373    -44.26 LEFT    3.5109E-01      0.46  3.4214E-01    176.19
   65.00     55.00     -4.14    -9.53    -3.04      0.4401    -17.63 RIGHT   2.5381E-01   -108.88  1.3643E-01    133.25
   70.00     55.00     -3.73     1.63     2.74      0.3587    -67.70 RIGHT   2.6601E-01    111.94  4.9343E-01    -18.53
   75.00     55.00     -6.72     3.92     4.28      0.1167    -74.92 RIGHT   1.8853E-01    -38.76  6.4221E-01    166.45
   80.00     55.00    -10.99     2.83     3.00      0.0587    -78.96 LEFT    1.1534E-01   -173.71  5.6617E-01    -11.10
   85.00     55.00    -13.67    -1.93    -1.65      0.2057    -81.06 LEFT    8.4768E-02     44.63  3.2749E-01    170.21
   90.00     55.00   -999.99  -191.76  -191.74      0.0000      0.00         7.4455E-12     54.81  1.0558E-10    -12.74
   10.00     60.00      4.77    -2.04     5.59      0.0249     24.50 RIGHT   7.0830E-01    132.34  3.2330E-01    128.56
   15.00     60.00      3.13    -6.55     3.57      0.0503     17.97 RIGHT   5.8595E-01    121.87  1.9230E-01    112.11
   20.00     60.00     -4.85   -20.07    -4.72      0.0759      8.85 RIGHT   2.3407E-01     63.59  4.0551E-02     36.94
   25.00     60.00      3.86   -14.47     3.92      0.1212      0.05 RIGHT   6.3751E-01    -29.86  7.7257E-02   -119.44
   30.00     60.00      4.47    -8.78     4.67      0.1526     -8.81 RIGHT   6.8404E-01    -53.33  1.4872E-01    172.58
   35.00     60.00     -0.42    -9.96     0.04      0.0985    -17.67 RIGHT   3.8971E-01    176.82  1.2989E-01     15.80
   40.00     60.00      4.60    -0.89     5.68      0.1932    -26.46 RIGHT   6.9437E-01    130.04  3.6896E-01    -23.25
   45.00     60.00      1.32    -2.22     2.91      0.0626    -33.55 RIGHT   4.7603E-01    -12.73  3.1678E-01    175.04
   50.00     60.00      0.07    -1.93     2.19      0.3147    -37.02 RIGHT   4.1200E-01    -73.33  3.2759E-01    142.68
   55.00     60.00      2.79     4.28     6.61      0.1458    -50.13 RIGHT   5.6357E-01    142.11  6.6959E-01    -21.04
   60.00     60.00     -1.58     0.41     2.54      0.0791    -51.56 LEFT    3.4103E-01     -0.77  4.2845E-01    169.95
   65.00     60.00     -4.34    -7.45    -2.61      0.4856    -28.17 RIGHT   2.4799E-01   -110.18  1.7351E-01    126.60
   70.00     60.00     -3.88     3.85     4.53      0.2594    -72.26 RIGHT   2.6144E-01    110.58  6.3707E-01    -25.64
   75.00     60.00     -6.83     6.26     6.47      0.0694    -78.11 RIGHT   1.8626E-01    -40.19  8.4033E-01    158.88
   80.00     60.00    -11.06     5.25     5.35      0.0607    -82.01 LEFT    1.1442E-01   -175.18  7.4863E-01    -19.04
   85.00     60.00    -13.71     0.56     0.72      0.1679    -84.51 LEFT    8.4315E-02     43.14  4.3593E-01    162.01
   90.00     60.00   -999.99  -189.26  -189.24      0.0000      0.00         7.4124E-12     53.30  1.4086E-10    -21.02
   10.00     65.00      5.02    -3.70     5.57      0.0222     20.10 RIGHT   7.2891E-01    132.12  2.6719E-01    128.19
   15.00     65.00      3.22    -8.60     3.50      0.0456     14.16 RIGHT   5.9257E-01    121.45  1.5194E-01    110.54
   20.00     65.00     -4.91   -22.99    -4.85      0.0705      5.88 RIGHT   2.3220E-01     62.97  2.8989E-02     28.17
   25.00     65.00      3.63   -14.61     3.69      0.1114     -2.92 RIGHT   6.2094E-01    -30.64  7.6077E-02   -144.90
   30.00     65.00      4.10    -7.68     4.38      0.1477    -11.92 RIGHT   6.5592E-01    -54.24  1.6888E-01    162.52
   35.00     65.00     -0.89    -9.12    -0.28      0.0852    -20.73 RIGHT   3.6918E-01    175.80  1.4313E-01     10.33
   40.00     65.00      4.06    -0.16     5.45      0.1859    -30.56 RIGHT   6.5217E-01    128.96  4.0126E-01    -27.30
   45.00     65.00      0.73    -1.50     2.77      0.0455    -37.69 RIGHT   4.4476E-01    -13.87  3.4404E-01    171.51
   50.00     65.00     -0.55    -1.16     2.17      0.3032    -42.55 RIGHT   3.8399E-01    -74.53  3.5758E-01    139.30
   55.00     65.00      2.17     5.12     6.90      0.1217    -54.84 RIGHT   5.2508E-01    140.86  7.3718E-01    -24.44
   60.00     65.00     -2.18     1.33     2.93      0.0929    -56.48 LEFT    3.1814E-01     -2.06  4.7657E-01    166.43
   65.00     65.00     -4.93    -6.43    -2.60      0.5015    -36.69 RIGHT   2.3186E-01   -111.52  1.9508E-01    122.91
   70.00     65.00     -4.45     4.96     5.43      0.2093    -75.05 RIGHT   2.4507E-01    109.19  7.2366E-01    -29.51
   75.00     65.00     -7.37     7.44     7.58      0.0499    -80.09 RIGHT   1.7505E-01    -41.60  9.6308E-01    154.83
   80.00     65.00    -11.58     6.50     6.56      0.0552    -83.62 LEFT    1.0776E-01   -176.62  8.6391E-01    -23.24
   85.00     65.00    -14.22     1.84     1.94      0.1407    -85.97 LEFT    7.9517E-02     41.67  5.0525E-01    157.72
   90.00     65.00   -999.99  -187.96  -187.95      0.0000      0.00         6.9940E-12     51.83  1.6350E-10    -25.34
   10.00     70.00      5.21    -5.71     5.55      0.0187     15.86 RIGHT   7.4465E-01    131.93  2.1198E-01    127.86
   15.00     70.00      3.27   -10.98     3.43      0.0392     10.75 RIGHT   5.9568E-01    121.07  1.1552E-01    108.98
   20.00     70.00     -5.03   -26.08    -5.00      0.0622      3.61 RIGHT   2.2906E-01     62.38  2.0296E-02     17.57
   25.00     70.00      3.34   -14.55     3.41      0.0986     -4.62 RIGHT   6.0082E-01    -31.42  7.6613E-02   -160.31
   30.00     70.00      3.66    -7.61     3.97      0.1383    -13.27 RIGHT   6.2333E-01    -55.19  1.7034E-01    157.06
   35.00     70.00     -1.47    -9.25    -0.80      0.0757    -21.87 RIGHT   3.4539E-01    174.72  1.4102E-01      7.14
   40.00     70.00      3.37    -0.36     4.90      0.1804    -32.21 RIGHT   6.0243E-01    127.77  3.9230E-01    -29.76
   45.00     70.00     -0.04    -1.69     2.22      0.0382    -39.58 RIGHT   4.0681E-01    -15.14  3.3647E-01    169.32
   50.00     70.00     -1.38    -1.32     1.66      0.2967    -45.25 RIGHT   3.4872E-01    -75.85  3.5128E-01    137.20
   55.00     70.00      1.29     5.02     6.56      0.1118    -57.26 RIGHT   4.7455E-01    139.48  7.2895E-01    -26.55
   60.00     70.00     -3.08     1.30     2.65      0.0947    -59.15 LEFT    2.8666E-01     -3.49  4.7480E-01    164.27
   65.00     70.00     -5.85    -6.39    -3.10      0.5039    -41.97 RIGHT   2.0857E-01   -112.98  1.9584E-01    120.67
   70.00     70.00     -5.37     5.05     5.43      0.1853    -76.63 RIGHT   2.2031E-01    107.71  7.3165E-01    -31.84
   75.00     70.00     -8.30     7.59     7.70      0.0420    -81.19 RIGHT   1.5734E-01    -43.12  9.7960E-01    152.42
   80.00     70.00    -12.51     6.69     6.74      0.0503    -84.43 LEFT    9.6876E-02   -178.15  8.8279E-01    -25.72
   85.00     70.00    -15.15     2.05     2.13      0.1246    -86.60 LEFT    7.1497E-02     40.13  5.1778E-01    155.20
   90.00     70.00   -999.99  -187.74  -187.73      0.0000      0.00         6.2890E-12     50.29  1.6772E-10    -27.88
   10.00     75.00      5.34    -8.27     5.52      0.0146     11.76 RIGHT   7.5612E-01    131.77  1.5780E-01    127.58
   15.00     75.00      3.28   -13.87     3.36      0.0311      7.71 RIGHT   5.9653E-01    120.74  8.2833E-02    107.55
   20.00     75.00     -5.17   -29.39    -5.15      0.0506      2.00 RIGHT   2.2550E-01     61.85  1.3874E-02      6.35
   25.00     75.00      3.05   -15.38     3.11      0.0816     -5.03 RIGHT   5.8060E-01    -32.16  6.9640E-02   -168.91
   30.00     75.00      3.20    -8.65     3.48      0.1216    -12.66 RIGHT   5.9124E-01    -56.12  1.5100E-01    153.87
   35.00     75.00     -2.08   -10.43    -1.48      0.0670    -20.64 RIGHT   3.2191E-01    173.63  1.2309E-01      5.16
   40.00     75.00      2.62    -1.58     4.02      0.1735    -30.77 RIGHT   5.5272E-01    126.54  3.4099E-01    -31.32
   45.00     75.00     -0.91    -2.90     1.22      0.0375    -38.47 RIGHT   3.6823E-01    -16.48  2.9274E-01    167.92
   50.00     75.00     -2.35    -2.50     0.59      0.2975    -44.40 RIGHT   3.1212E-01    -77.29  3.0672E-01    135.85
   55.00     75.00      0.25     3.89     5.45      0.1135    -56.97 RIGHT   4.2092E-01    137.97  6.3961E-01    -27.90
   60.00     75.00     -4.19     0.21     1.56      0.0932    -59.19 LEFT    2.5247E-01     -5.05  4.1885E-01    162.89
   65.00     75.00     -7.00    -7.44    -4.20      0.5066    -42.54 RIGHT   1.8272E-01   -114.58  1.7369E-01    119.25
   70.00     75.00     -6.55     4.05     4.42      0.1825    -76.94 RIGHT   1.9225E-01    106.07  6.5204E-01    -33.31
   75.00     75.00     -9.50     6.62     6.73      0.0413    -81.43 RIGHT   1.3693E-01    -44.78  8.7661E-01    150.91
   80.00     75.00    -13.73     5.75     5.80      0.0485    -84.60 LEFT    8.4158E-02   -179.83  7.9243E-01    -27.26
   85.00     75.00    -16.38     1.13     1.21      0.1202    -86.71 LEFT    6.2049E-02     38.45  4.6567E-01    153.64
   90.00     75.00   -999.99  -188.66  -188.65      0.0000      0.00         5.4562E-12     48.59  1.5094E-10    -29.45
   10.00     80.00      5.43   -11.84     5.51      0.0100      7.78 RIGHT   7.6389E-01    131.65  1.0459E-01    127.39
   15.00     80.00      3.28   -17.70     3.31      0.0216      4.96 RIGHT   5.9623E-01    120.48  5.3274E-02    106.40
   20.00     80.00     -5.29   -33.33    -5.29      0.0359      0.96 RIGHT   2.2232E-01     61.43  8.8176E-03     -3.55
   25.00     80.00      2.79   -17.72     2.82      0.0591     -4.21 RIGHT   5.6349E-01    -32.77  5.3182E-02   -173.75
   30.00     80.00      2.80   -11.18     2.97      0.0936    -10.02 RIGHT   5.6435E-01    -56.92  1.1282E-01    151.96
   35.00     80.00     -2.63   -13.04    -2.25      0.0543    -16.52 RIGHT   3.0219E-01    172.65  9.1095E-02      3.94
   40.00     80.00      1.93    -4.21     2.87      0.1541    -25.16 RIGHT   5.1061E-01    125.40  2.5175E-01    -32.30
   45.00     80.00     -1.73    -5.53    -0.21      0.0382    -32.80 RIGHT   3.3518E-01    -17.77  2.1633E-01    167.04
   50.00     80.00     -3.28    -5.10    -1.08      0.2950    -37.86 RIGHT   2.8037E-01    -78.70  2.2723E-01    135.00
   55.00     80.00     -0.78     1.31     3.40      0.1260    -52.05 RIGHT   3.7379E-01    136.46  4.7543E-01    -28.75
   60.00     80.00     -5.30    -2.34    -0.56      0.0936    -54.78 LEFT    2.2204E-01     -6.64  3.1246E-01    162.02
   65.00     80.00     -8.18    -9.95    -5.97      0.4984    -35.24 RIGHT   1.5943E-01   -116.24  1.3002E-01    118.36
   70.00     80.00     -7.79     1.57     2.04      0.2108    -75.00 RIGHT   1.6670E-01    104.36  4.8968E-01    -34.22
   75.00     80.00    -10.78     4.16     4.30      0.0494    -80.24 RIGHT   1.1817E-01    -46.52  6.6008E-01    149.98
   80.00     80.00    -15.04     3.30     3.36      0.0536    -83.80 LEFT    7.2392E-02    178.40  5.9788E-01    -28.21
   85.00     80.00    -17.70    -1.31    -1.21      0.1355    -86.13 LEFT    5.3271E-02     36.66  3.5178E-01    152.68
   90.00     80.00   -999.99  -191.09  -191.08      0.0000      0.00         4.6814E-12     46.81  1.1407E-10    -30.41
   10.00     85.00      5.48   -17.89     5.50      0.0050      3.87 RIGHT   7.6836E-01    131.58  5.2124E-02    127.31
   15.00     85.00      3.27   -23.94     3.28      0.0110      2.42 RIGHT   5.9566E-01    120.32  2.5965E-02    105.72
   20.00     85.00     -5.38   -39.54    -5.38      0.0186      0.35 RIGHT   2.2014E-01     61.15  4.3126E-03    -10.65
   25.00     85.00      2.61   -23.01     2.62      0.0312     -2.41 RIGHT   5.5209E-01    -33.18  2.8923E-02   -176.54
   30.00     85.00      2.52   -16.60     2.57      0.0519     -5.58 RIGHT   5.4651E-01    -57.47  6.0507E-02    150.80
   35.00     85.00     -3.01   -18.50    -2.89      0.0319     -9.37 RIGHT   2.8908E-01    171.95  4.8571E-02      3.20
   40.00     85.00      1.44    -9.69     1.76      0.0999    -14.53 RIGHT   4.8248E-01    124.56  1.3400E-01    -32.88
   45.00     85.00     -2.32   -11.01    -1.77      0.0298    -20.14 RIGHT   3.1297E-01    -18.74  1.1517E-01    166.52
   50.00     85.00     -3.97   -10.57    -3.11      0.2275    -22.35 RIGHT   2.5888E-01    -79.79  1.2112E-01    134.51
   55.00     85.00     -1.56    -4.14     0.35      0.1301    -36.31 RIGHT   3.4165E-01    135.26  2.5385E-01    -29.24
   60.00     85.00     -6.16    -7.77    -3.88      0.0907    -39.64 LEFT    2.0114E-01     -7.93  1.6715E-01    161.53
   65.00     85.00     -9.11   -15.37    -8.18      0.3677    -17.92 RIGHT   1.4332E-01   -117.60  6.9686E-02    117.85
   70.00     85.00     -8.77    -3.84    -2.63      0.3179    -64.52 RIGHT   1.4893E-01    102.94  2.6289E-01    -34.74
   75.00     85.00    -11.80    -1.23    -0.87      0.0821    -74.12 RIGHT   1.0506E-01    -47.99  3.5488E-01    149.45
   80.00     85.00    -16.09    -2.08    -1.91      0.0836    -79.74 LEFT    6.4140E-02    176.90  3.2179E-01    -28.75
   85.00     85.00    -18.77    -6.68    -6.42      0.2186    -83.24 LEFT    4.7103E-02     35.15  1.8946E-01    152.13
   90.00     85.00   -999.99  -196.46  -196.44      0.0000      0.00         4.1365E-12     45.29  6.1451E-11    -30.96
   10.00     90.00      5.50   -70.74     5.50      0.0001      0.01 LEFT    7.6982E-01    131.55  1.1878E-04   -177.76
   15.00     90.00      3.26   -66.93     3.26      0.0002     -0.01 LEFT    5.9540E-01    120.26  1.8406E-04    -99.42
   20.00     90.00     -5.41   -70.05    -5.41      0.0002     -0.03 LEFT    2.1935E-01     61.05  1.2851E-04   -138.06
   25.00     90.00      2.54   -57.38     2.54      0.0002     -0.06 LEFT    5.4807E-01    -33.32  5.5260E-04    132.93
   30.00     90.00      2.42   -54.85     2.42      0.0001     -0.08 LEFT    5.4024E-01    -57.67  7.3971E-04    119.86
   35.00     90.00     -3.15   -59.27    -3.15      0.0003     -0.09 LEFT    2.8447E-01    171.70  4.4472E-04    -18.32
   40.00     90.00      1.26   -52.42     1.26      0.0003     -0.12 RIGHT   4.7258E-01    124.25  9.7874E-04    -48.70
   45.00     90.00     -2.54   -55.41    -2.54      0.0003     -0.13 LEFT    3.0513E-01    -19.11  6.9352E-04    154.07
   50.00     90.00     -4.23   -56.44    -4.23      0.0010     -0.13 RIGHT   2.5128E-01    -80.21  6.1599E-04    123.57
   55.00     90.00     -1.86   -51.28    -1.86      0.0003     -0.19 RIGHT   3.3024E-01    134.79  1.1163E-03    -40.23
   60.00     90.00     -6.49   -55.95    -6.49      0.0013     -0.18 LEFT    1.9370E-01     -8.44  6.5215E-04    149.29
   65.00     90.00     -9.46   -64.35    -9.46      0.0012     -0.08 RIGHT   1.3757E-01   -118.15  2.4786E-04    103.65
   70.00     90.00     -9.15   -53.39    -9.15      0.0027     -0.31 RIGHT   1.4256E-01    102.36  8.7476E-04    -51.13
   75.00     90.00    -12.20   -51.18   -12.20      0.0001     -0.64 LEFT    1.0036E-01    -48.59  1.1294E-03    131.05
   80.00     90.00    -16.50   -52.26   -16.50      0.0115     -0.66 LEFT    6.1176E-02    176.29  9.9655E-04    -48.70
   85.00     90.00    -19.19   -56.99   -19.19      0.0128     -0.09 LEFT    4.4884E-02     34.52  5.7834E-04    131.21
   90.00     90.00   -999.99  -999.99  -999.99      0.0000      0.00         3.9404E-12     44.66  1.8670E-13    -52.20
   10.00     95.00      5.48   -17.91     5.50      0.0053     -3.86 LEFT    7.6837E-01    131.58  5.1985E-02    -52.90
   15.00     95.00      3.27   -23.84     3.28      0.0114     -2.44 LEFT    5.9564E-01    120.32  2.6291E-02    -74.62
   20.00     95.00     -5.38   -39.22    -5.38      0.0190     -0.41 LEFT    2.2011E-01     61.15  4.4711E-03    171.92
   25.00     95.00      2.61   -23.21     2.62      0.0317      2.30 LEFT    5.5201E-01    -33.18  2.8247E-02      5.16
   30.00     95.00      2.52   -16.78     2.57      0.0521      5.43 LEFT    5.4640E-01    -57.47  5.9266E-02    -28.48
   35.00     95.00     -3.01   -18.65    -2.90      0.0325      9.20 LEFT    2.8901E-01    171.95  4.7761E-02   -176.42
   40.00     95.00      1.44    -9.81     1.75      0.0997     14.32 LEFT    4.8237E-01    124.56  1.3216E-01    147.34
   45.00     95.00     -2.32   -11.11    -1.78      0.0303     19.93 LEFT    3.1289E-01    -18.74  1.1385E-01    -13.34
   50.00     95.00     -3.97   -10.65    -3.13      0.2266     22.12 LEFT    2.5882E-01    -79.79  1.1995E-01    -45.39
   55.00     95.00     -1.56    -4.21     0.32      0.1305     36.08 LEFT    3.4157E-01    135.26  2.5173E-01    150.85
   60.00     95.00     -6.16    -7.83    -3.91      0.0898     39.44 RIGHT   2.0109E-01     -7.93  1.6592E-01    -18.39
   65.00     95.00     -9.11   -15.43    -8.20      0.3663     17.75 LEFT    1.4329E-01   -117.60  6.9228E-02    -62.06
   70.00     95.00     -8.77    -3.89    -2.67      0.3198     64.38 LEFT    1.4889E-01    102.94  2.6130E-01    145.35
   75.00     95.00    -11.81    -1.28    -0.91      0.0830     74.04 LEFT    1.0504E-01    -47.99  3.5286E-01    -30.45
   80.00     95.00    -16.09    -2.13    -1.96      0.0837     79.68 RIGHT   6.4125E-02    176.91  3.2003E-01    151.36
   85.00     95.00    -18.77    -6.73    -6.47      0.2195     83.18 RIGHT   4.7091E-02     35.15  1.8845E-01    -27.76
   90.00     95.00   -999.99  -196.51  -196.49      0.0000      0.00         4.1354E-12     45.29  6.1125E-11    149.15
   10.00    100.00      5.43   -11.86     5.51      0.0102     -7.76 LEFT    7.6391E-01    131.65  1.0444E-01    -52.71
   15.00    100.00      3.28   -17.65     3.31      0.0220     -4.98 LEFT    5.9618E-01    120.48  5.3575E-02    -73.76
   20.00    100.00     -5.29   -33.16    -5.29      0.0363     -1.02 LEFT    2.2228E-01     61.43  8.9888E-03    177.53
   25.00    100.00      2.78   -17.82     2.82      0.0596      4.11 LEFT    5.6334E-01    -32.77  5.2578E-02      7.15
   30.00    100.00      2.80   -11.27     2.96      0.0939      9.89 LEFT    5.6415E-01    -56.92  1.1166E-01    -27.67
   35.00    100.00     -2.63   -13.11    -2.26      0.0548     16.39 LEFT    3.0207E-01    172.65  9.0336E-02   -175.87
   40.00    100.00      1.93    -4.27     2.86      0.1542     25.00 LEFT    5.1039E-01    125.40  2.5003E-01    147.81
   45.00    100.00     -1.73    -5.58    -0.23      0.0387     32.66 LEFT    3.3504E-01    -17.77  2.1510E-01    -12.90
   50.00    100.00     -3.28    -5.14    -1.10      0.2951     37.72 LEFT    2.8025E-01    -78.70  2.2616E-01    -44.96
   55.00    100.00     -0.78     1.27     3.38      0.1264     51.95 LEFT    3.7364E-01    136.46  4.7352E-01    151.28
   60.00    100.00     -5.31    -2.37    -0.58      0.0935     54.69 RIGHT   2.2196E-01     -6.64  3.1138E-01    -17.95
   65.00    100.00     -8.18    -9.98    -5.98      0.4983     35.12 LEFT    1.5937E-01   -116.24  1.2963E-01    -61.61
   70.00    100.00     -7.80     1.54     2.02      0.2114     74.97 LEFT    1.6664E-01    104.36  4.8833E-01    145.81
   75.00    100.00    -10.78     4.14     4.28      0.0496     80.22 LEFT    1.1813E-01    -46.52  6.5839E-01    -29.99
   80.00    100.00    -15.04     3.28     3.34      0.0536     83.79 RIGHT   7.2366E-02    178.40  5.9643E-01    151.83
   85.00    100.00    -17.71    -1.33    -1.23      0.1357     86.12 RIGHT   5.3253E-02     36.66  3.5095E-01    -27.28
   90.00    100.00   -999.99  -191.11  -191.10      0.0000      0.00         4.6798E-12     46.81  1.1381E-10    149.62
   10.00    105.00      5.34    -8.28     5.52      0.0148    -11.75 LEFT    7.5617E-01    131.78  1.5763E-01    -52.48
   15.00    105.00      3.28   -13.84     3.36      0.0315     -7.73 LEFT    5.9647E-01    120.74  8.3095E-02    -72.56
   20.00    105.00     -5.17   -29.28    -5.15      0.0510     -2.05 LEFT    2.2545E-01     61.86  1.4055E-02   -173.16
   25.00    105.00      3.04   -15.44     3.10      0.0820      4.94 LEFT    5.8038E-01    -32.15  6.9159E-02     11.76
   30.00    105.00      3.20    -8.71     3.47      0.1219     12.55 LEFT    5.9096E-01    -56.12  1.4997E-01    -25.87
   35.00    105.00     -2.08   -10.48    -1.49      0.0675     20.53 LEFT    3.2175E-01    173.63  1.2241E-01   -174.71
   40.00    105.00      2.61    -1.62     4.00      0.1737     30.66 LEFT    5.5242E-01    126.54  3.3946E-01    148.74
   45.00    105.00     -0.91    -2.93     1.20      0.0377     38.38 LEFT    3.6804E-01    -16.49  2.9167E-01    -12.05
   50.00    105.00     -2.35    -2.52     0.57      0.2977     44.32 LEFT    3.1197E-01    -77.30  3.0580E-01    -44.14
   55.00    105.00      0.25     3.86     5.43      0.1137     56.92 LEFT    4.2073E-01    137.97  6.3802E-01    152.10
   60.00    105.00     -4.19     0.19     1.54      0.0933     59.14 RIGHT   2.5237E-01     -5.05  4.1798E-01    -17.12
   65.00    105.00     -7.00    -7.45    -4.21      0.5065     42.48 LEFT    1.8265E-01   -114.59  1.7338E-01    -60.76
   70.00    105.00     -6.56     4.04     4.40      0.1827     76.93 LEFT    1.9219E-01    106.06  6.5104E-01    146.69
   75.00    105.00     -9.50     6.61     6.72      0.0414     81.42 LEFT    1.3689E-01    -44.78  8.7540E-01    -29.09
   80.00    105.00    -13.73     5.74     5.78      0.0485     84.60 RIGHT   8.4133E-02   -179.83  7.9143E-01    152.74
   85.00    105.00    -16.38     1.12     1.20      0.1203     86.70 RIGHT   6.2031E-02     38.44  4.6511E-01    -26.36
   90.00    105.00   -999.99  -188.67  -188.66      0.0000      0.00         5.4546E-12     48.59  1.5076E-10    150.55
   10.00    110.00      5.21    -5.71     5.55      0.0189    -15.84 LEFT    7.4472E-01    131.94  2.1179E-01    -52.19
   15.00    110.00      3.27   -10.96     3.43      0.0396    -10.77 LEFT    5.9562E-01    121.07  1.1574E-01    -71.10
   20.00    110.00     -5.04   -26.01    -5.00      0.0625     -3.66 LEFT    2.2900E-01     62.39  2.0474E-02   -162.23
   25.00    110.00      3.34   -14.58     3.41      0.0991      4.55 LEFT    6.0056E-01    -31.42  7.6308E-02     20.26
   30.00    110.00      3.66    -7.65     3.97      0.1386     13.18 LEFT    6.2301E-01    -55.19  1.6948E-01    -22.72
   35.00    110.00     -1.47    -9.28    -0.81      0.0761     21.79 LEFT    3.4520E-01    174.72  1.4044E-01   -172.77
   40.00    110.00      3.36    -0.39     4.89      0.1806     32.13 LEFT    6.0210E-01    127.77  3.9101E-01    150.28
   45.00    110.00     -0.05    -1.72     2.21      0.0384     39.52 LEFT    4.0660E-01    -15.15  3.3558E-01    -10.67
   50.00    110.00     -1.39    -1.34     1.65      0.2967     45.19 LEFT    3.4856E-01    -75.86  3.5054E-01    -42.81
   55.00    110.00      1.29     5.01     6.55      0.1118     57.22 LEFT    4.7437E-01    139.47  7.2774E-01    153.43
   60.00    110.00     -3.09     1.29     2.64      0.0949     59.13 RIGHT   2.8657E-01     -3.50  4.7418E-01    -15.76
   65.00    110.00     -5.85    -6.40    -3.11      0.5037     41.93 LEFT    2.0852E-01   -112.99  1.9564E-01    -59.36
   70.00    110.00     -5.37     5.05     5.42      0.1853     76.61 LEFT    2.2026E-01    107.69  7.3104E-01    148.13
   75.00    110.00     -8.30     7.58     7.69      0.0420     81.18 LEFT    1.5732E-01    -43.13  9.7894E-01    -27.61
   80.00    110.00    -12.51     6.68     6.73      0.0504     84.43 RIGHT   9.6862E-02   -178.16  8.8229E-01    154.25
   85.00    110.00    -15.15     2.05     2.13      0.1247     86.60 RIGHT   7.1488E-02     40.12  5.1751E-01    -24.83
   90.00    110.00   -999.99  -187.74  -187.74      0.0000      0.00         6.2883E-12     50.28  1.6764E-10    152.09
   10.00    115.00      5.02    -3.70     5.57      0.0224    -20.08 LEFT    7.2901E-01    132.13  2.6698E-01    -51.84
   15.00    115.00      3.22    -8.59     3.50      0.0460    -14.17 LEFT    5.9252E-01    121.46  1.5209E-01    -69.52
   20.00    115.00     -4.92   -22.94    -4.85      0.0708     -5.92 LEFT    2.3214E-01     62.98  2.9146E-02   -151.79
   25.00    115.00      3.63   -14.61     3.69      0.1118      2.86 LEFT    6.2068E-01    -30.63  7.6011E-02     35.61
   30.00    115.00      4.10    -7.71     4.38      0.1479     11.85 LEFT    6.5558E-01    -54.24  1.6822E-01    -17.28
   35.00    115.00     -0.89    -9.15    -0.29      0.0855     20.67 LEFT    3.6898E-01    175.80  1.4267E-01   -169.59
   40.00    115.00      4.05    -0.19     5.44      0.1860     30.50 LEFT    6.5184E-01    128.95  4.0022E-01    152.73
   45.00    115.00      0.73    -1.52     2.76      0.0455     37.65 LEFT    4.4456E-01    -13.88  3.4334E-01     -8.50
   50.00    115.00     -0.55    -1.18     2.16      0.3030     42.51 LEFT    3.8384E-01    -74.54  3.5703E-01    -40.72
   55.00    115.00      2.17     5.11     6.89      0.1215     54.81 LEFT    5.2494E-01    140.84  7.3633E-01    155.52
   60.00    115.00     -2.18     1.32     2.93      0.0932     56.47 RIGHT   3.1808E-01     -2.08  4.7618E-01    -13.62
   65.00    115.00     -4.93    -6.43    -2.61      0.5011     36.68 LEFT    2.3183E-01   -111.54  1.9497E-01    -57.14
   70.00    115.00     -4.45     4.96     5.43      0.2092     75.04 LEFT    2.4506E-01    109.17  7.2342E-01    150.43
   75.00    115.00     -7.37     7.44     7.58      0.0498     80.08 LEFT    1.7505E-01    -41.62  9.6291E-01    -25.23
   80.00    115.00    -11.58     6.50     6.56      0.0553     83.62 RIGHT   1.0777E-01   -176.64  8.6386E-01    156.70
   85.00    115.00    -14.22     1.84     1.94      0.1408     85.97 RIGHT   7.9525E-02     41.65  5.0525E-01    -22.34
   90.00    115.00   -999.99  -187.96  -187.95      0.0000      0.00         6.9946E-12     51.81  1.6351E-10    154.60
   10.00    120.00      4.77    -2.05     5.59      0.0251    -24.48 LEFT    7.0844E-01    132.34  3.2306E-01    -51.47
   15.00    120.00      3.12    -6.55     3.57      0.0506    -17.98 LEFT    5.8592E-01    121.87  1.9239E-01    -67.93
   20.00    120.00     -4.85   -20.05    -4.72      0.0762     -8.88 LEFT    2.3401E-01     63.60  4.0676E-02   -143.07
   25.00    120.00      3.85   -14.45     3.92      0.1215     -0.10 LEFT    6.3725E-01    -29.85  7.7452E-02     60.93
   30.00    120.00      4.47    -8.81     4.66      0.1528      8.76 LEFT    6.8371E-01    -53.32  1.4829E-01     -7.21
   35.00    120.00     -0.42    -9.98     0.03      0.0987     17.63 LEFT    3.8953E-01    176.81  1.2954E-01   -164.13
   40.00    120.00      4.60    -0.91     5.67      0.1931     26.41 LEFT    6.9407E-01    130.04  3.6819E-01    156.77
   45.00    120.00      1.32    -2.23     2.91      0.0625     33.51 LEFT    4.7587E-01    -12.74  3.1627E-01     -4.98
   50.00    120.00      0.06    -1.94     2.19      0.3144     36.99 LEFT    4.1190E-01    -73.34  3.2720E-01    -37.36
   55.00    120.00      2.79     4.28     6.61      0.1455     50.11 LEFT    5.6349E-01    142.09  6.6906E-01    158.90
   60.00    120.00     -1.58     0.40     2.53      0.0795     51.55 RIGHT   3.4102E-01     -0.79  4.2825E-01    -10.13
   65.00    120.00     -4.34    -7.45    -2.61      0.4850     28.18 LEFT    2.4801E-01   -110.21  1.7347E-01    -53.49
   70.00    120.00     -3.88     3.85     4.53      0.2591     72.25 LEFT    2.6148E-01    110.55  6.3710E-01    154.27
   75.00    120.00     -6.83     6.26     6.47      0.0691     78.11 LEFT    1.8631E-01    -40.22  8.4050E-01    -21.21
   80.00    120.00    -11.06     5.26     5.36      0.0608     82.02 RIGHT   1.1446E-01   -175.21  7.4888E-01    160.86
   85.00    120.00    -13.71     0.56     0.72      0.1680     84.52 RIGHT   8.4342E-02     43.10  4.3611E-01    -18.09
   90.00    120.00   -999.99  -189.25  -189.24      0.0000      0.00         7.4148E-12     53.26  1.4092E-10    158.88
   10.00    125.00      4.45    -0.64     5.62      0.0270    -29.07 LEFT    6.8240E-01    132.57  3.7968E-01    -51.07
   15.00    125.00      2.95    -4.76     3.63      0.0534    -22.20 LEFT    5.7454E-01    122.30  2.3644E-01    -66.41
   20.00    125.00     -4.86   -17.39    -4.62      0.0789    -12.55 LEFT    2.3375E-01     64.20  5.5194E-02   -136.31
   25.00    125.00      3.99   -12.56     4.08      0.1291     -4.23 LEFT    6.4694E-01    -29.11  9.6253E-02     90.18
   30.00    125.00      4.70   -10.66     4.83      0.1546      4.12 LEFT    7.0277E-01    -52.48  1.1983E-01     13.17
   35.00    125.00     -0.11   -11.86     0.17      0.1174     12.97 LEFT    4.0366E-01    177.73  1.0434E-01   -153.72
   40.00    125.00      4.94    -2.63     5.64      0.2020     20.18 LEFT    7.2227E-01    131.01  3.0203E-01    164.05
   45.00    125.00      1.67    -3.92     2.73      0.0929     27.39 LEFT    4.9556E-01    -11.70  2.6052E-01      1.21
   50.00    125.00      0.40    -3.67     1.84      0.3246     28.67 LEFT    4.2809E-01    -72.25  2.6806E-01    -31.49
   55.00    125.00      3.09     2.45     5.79      0.1901     42.74 LEFT    5.8330E-01    143.24  5.4205E-01    164.83
   60.00    125.00     -1.32    -1.55     1.58      0.0379     44.25 RIGHT   3.5114E-01      0.43  3.4205E-01     -3.92
   65.00    125.00     -4.14    -9.53    -3.04      0.4394     17.66 LEFT    2.5387E-01   -108.92  1.3643E-01    -46.88
   70.00    125.00     -3.73     1.63     2.74      0.3580     67.66 LEFT    2.6611E-01    111.90  4.9354E-01    161.33
   75.00    125.00     -6.72     3.92     4.28      0.1162     74.90 LEFT    1.8862E-01    -38.81  6.4246E-01    -13.71
   80.00    125.00    -10.99     2.83     3.01      0.0591     78.97 RIGHT   1.1540E-01   -173.75  5.6647E-01    168.74
   85.00    125.00    -13.66    -1.92    -1.64      0.2060     81.08 RIGHT   8.4815E-02     44.59  3.2769E-01     -9.96
   90.00    125.00   -999.99  -191.76  -191.73      0.0000      0.00         7.4497E-12     54.76  1.0564E-10    167.09
[...]
   35.00    315.00     -0.11   -15.47     0.02      0.1702     -0.51 LEFT    4.0393E-01     -0.71  6.8848E-02     92.19
   40.00    315.00      4.92    -8.38     5.12      0.2143      1.75 LEFT    7.2027E-01    -47.29  1.5589E-01     34.98
   45.00    315.00      1.56   -10.26     1.83      0.2027      8.94 LEFT    4.8910E-01    170.16  1.2544E-01   -135.85
   50.00    315.00      0.15   -10.31     0.52      0.2939      3.46 LEFT    4.1590E-01    109.80  1.2476E-01   -170.82
   55.00    315.00      2.66    -4.44     3.44      0.3670     13.93 LEFT    5.5566E-01    -34.48  2.4511E-01     26.68
   60.00    315.00     -1.93    -8.66    -1.10      0.2505     21.30 LEFT    3.2724E-01   -177.03  1.5095E-01   -138.74
   65.00    315.00     -4.95   -16.77    -4.67      0.2407     -5.07 LEFT    2.3129E-01     73.90  5.9321E-02   -177.11
   70.00    315.00     -4.73    -5.62    -2.14      0.8016    -31.03 LEFT    2.3724E-01    -65.01  2.1417E-01     36.13
   75.00    315.00     -7.88    -3.24    -1.96      0.5725     82.39 LEFT    1.6498E-01    144.53  2.8144E-01   -134.24
   80.00    315.00    -12.28    -4.21    -3.58      0.2426     72.62 LEFT    9.9446E-02      9.79  2.5188E-01     51.91
   85.00    315.00    -15.04    -8.85    -7.91      0.0503     63.98 LEFT    7.2400E-02   -131.74  1.4760E-01   -124.45
   90.00    315.00   -999.99  -198.64  -198.56      0.0000      0.00         6.3384E-12   -121.52  4.7824E-11     53.40
   10.00    320.00      2.84     2.51     5.69      0.0274    -43.92 LEFT    5.6684E-01    -46.76  5.4594E-01    130.09
   15.00    320.00      1.77    -0.57     3.77      0.0517    -37.33 LEFT    5.0142E-01    -56.53  3.8292E-01    117.33
   20.00    320.00     -5.65   -11.23    -4.59      0.0744    -27.54 LEFT    2.1327E-01   -114.24  1.1225E-01     55.42
   25.00    320.00      3.47    -3.72     4.23      0.1384    -22.55 LEFT    6.0943E-01    152.72  2.6634E-01    -49.00
   30.00    320.00      4.33    -5.10     4.80      0.1417    -17.04 LEFT    6.7343E-01    129.55  2.2720E-01    -77.74
   35.00    320.00     -0.46   -12.25    -0.18      0.1996     -9.22 LEFT    3.8792E-01     -0.04  9.9742E-02    127.21
   40.00    320.00      4.51    -6.79     4.82      0.2087     -9.94 LEFT    6.8745E-01    -46.54  1.8720E-01     81.39
   45.00    320.00      1.07   -10.00     1.39      0.2713     -3.88 LEFT    4.6231E-01    171.01  1.2927E-01    -86.02
   50.00    320.00     -0.45   -10.56    -0.05      0.2327    -11.79 LEFT    3.8822E-01    110.80  1.2122E-01   -120.07
   55.00    320.00      1.94    -4.59     2.81      0.4243    -11.90 LEFT    5.1109E-01    -33.30  2.4114E-01     78.01
   60.00    320.00     -2.80    -8.31    -1.73      0.5299      1.19 LEFT    2.9617E-01   -175.64  1.5706E-01    -87.25
   65.00    320.00     -5.96   -15.77    -5.53      0.1101    -16.91 LEFT    2.0587E-01     75.53  6.6549E-02   -126.30
   70.00    320.00     -5.88    -3.97    -1.81      0.2741    -52.27 LEFT    2.0779E-01    -63.13  2.5880E-01     85.39
   75.00    320.00     -9.16    -1.08    -0.45      0.2994    -75.51 LEFT    1.4244E-01    146.66  3.6128E-01    -86.97
   80.00    320.00    -13.66    -1.68    -1.41      0.2508     88.71 LEFT    8.4887E-02     12.13  3.3716E-01     97.30
   85.00    320.00    -16.48    -6.11    -5.73      0.2194     78.15 LEFT    6.1348E-02   -129.26  2.0231E-01    -80.35
   90.00    320.00   -999.99  -195.83  -195.81      0.0000      0.00         5.3573E-12   -119.00  6.6054E-11     97.04
   10.00    325.00      2.00     3.29     5.70      0.0260    -49.25 LEFT    5.1476E-01    -46.56  5.9733E-01    130.43
   15.00    325.00      1.05     0.49     3.79      0.0484    -43.13 LEFT    4.6157E-01    -56.20  4.3252E-01    118.25
   20.00    325.00     -6.28    -9.74    -4.66      0.0697    -33.79 LEFT    1.9837E-01   -113.82  1.3330E-01     57.57
   25.00    325.00      2.88    -1.62     4.20      0.1352    -30.20 LEFT    5.6998E-01    153.20  3.3948E-01    -44.38
   30.00    325.00      3.76    -2.27     4.73      0.1301    -25.82 LEFT    6.3010E-01    130.08  3.1503E-01    -68.58
   35.00    325.00     -1.07    -8.79    -0.39      0.2239    -19.10 LEFT    3.6144E-01      0.56  1.4860E-01    143.24
   40.00    325.00      3.83    -3.05     4.64      0.1909    -22.40 LEFT    6.3525E-01    -45.85  2.8766E-01    104.80
   45.00    325.00      0.28    -6.29     1.14      0.3219    -19.05 LEFT    4.2219E-01    171.84  1.9809E-01    -57.49
   50.00    325.00     -1.37    -6.93    -0.30      0.1552    -26.82 LEFT    3.4929E-01    111.81  1.8415E-01    -89.73
   55.00    325.00      0.87    -0.98     3.05      0.3571    -37.12 LEFT    4.5189E-01    -32.05  3.6506E-01    107.57
   60.00    325.00     -4.04    -4.73    -1.36      0.6423    -39.52 LEFT    2.5685E-01   -174.10  2.3729E-01    -59.92
   65.00    325.00     -7.37   -12.23    -6.15      0.0068    -29.75 RIGHT   1.7495E-01     77.42  1.0002E-01   -101.67
   70.00    325.00     -7.47    -0.51     0.29      0.0760    -66.12 LEFT    1.7308E-01    -60.85  3.8552E-01    107.48
   75.00    325.00    -10.90     2.30     2.50      0.1253    -79.83 LEFT    1.1651E-01    149.32  5.3265E-01    -66.91
   80.00    325.00    -15.53     1.62     1.70      0.1364    -88.48 LEFT    6.8420E-02     15.13  4.9255E-01    115.92
   85.00    325.00    -18.43    -2.87    -2.75      0.1483     85.64 LEFT    4.8975E-02   -126.03  2.9374E-01    -62.59
   90.00    325.00   -999.99  -192.61  -192.61      0.0000      0.00         4.2626E-12   -115.67  9.5697E-11    114.52
   10.00    330.00      0.95     3.96     5.72      0.0238    -54.75 LEFT    4.5601E-01    -46.37  6.4484E-01    130.73
   15.00    330.00      0.10     1.39     3.80      0.0438    -49.25 LEFT    4.1372E-01    -55.90  4.7980E-01    119.02
   20.00    330.00     -7.16    -8.49    -4.77      0.0634    -40.59 LEFT    1.7929E-01   -113.46  1.5382E-01     59.20
   25.00    330.00      2.04     0.06     4.17      0.1276    -38.33 LEFT    5.1697E-01    153.61  4.1194E-01    -41.32
   30.00    330.00      2.90    -0.10     4.66      0.1151    -35.02 LEFT    5.7079E-01    130.55  4.0407E-01    -63.39
   35.00    330.00     -1.98    -6.20    -0.58      0.2359    -29.88 LEFT    3.2558E-01      1.09  2.0038E-01    151.05
   40.00    330.00      2.84    -0.16     4.60      0.1630    -34.74 LEFT    5.6679E-01    -45.20  4.0122E-01    115.12
   45.00    330.00     -0.83    -3.29     1.13      0.3289    -34.98 LEFT    3.7176E-01    172.64  2.8010E-01    -45.50
   50.00    330.00     -2.62    -3.95    -0.22      0.0866    -40.57 LEFT    3.0253E-01    112.83  2.5960E-01    -77.19
   55.00    330.00     -0.55     1.88     3.84      0.2521    -54.01 LEFT    3.8382E-01    -30.73  5.0758E-01    119.75
   60.00    330.00     -5.65    -2.03    -0.46      0.4641    -63.81 LEFT    2.1340E-01   -172.39  3.2366E-01    -48.59
   65.00    330.00     -9.19    -9.71    -6.43      0.0791    -43.25 RIGHT   1.4195E-01     79.62  1.3366E-01    -91.32
   70.00    330.00     -9.49     1.84     2.15      0.0219    -74.87 LEFT    1.3710E-01    -58.08  5.0546E-01    116.95
   75.00    330.00    -13.12     4.51     4.59      0.0665    -83.54 LEFT    9.0244E-02    152.71  6.8742E-01    -58.16
   80.00    330.00    -17.91     3.73     3.76      0.0799    -88.76 LEFT    5.2029E-02     19.07  6.2829E-01    124.16
   85.00    330.00    -20.92    -0.82    -0.78      0.0909     87.77 LEFT    3.6792E-02   -121.68  3.7204E-01    -54.65
   90.00    330.00   -999.99  -190.58  -190.58      0.0000      0.00         3.1885E-12   -111.18  1.2092E-10    122.36
   10.00    335.00     -0.39     4.51     5.73      0.0210    -60.38 LEFT    3.9098E-01    -46.21  6.8737E-01    130.99
   15.00    335.00     -1.15     2.14     3.81      0.0381    -55.63 LEFT    3.5823E-01    -55.66  5.2315E-01    119.66
   20.00    335.00     -8.36    -7.48    -4.88      0.0557    -47.91 LEFT    1.5625E-01   -113.15  1.7289E-01     60.44
   25.00    335.00      0.86     1.39     4.14      0.1152    -46.79 LEFT    4.5143E-01    153.96  4.7972E-01    -39.21
   30.00    335.00      1.70     1.53     4.62      0.0974    -44.42 LEFT    4.9726E-01    130.94  4.8751E-01    -60.19
   35.00    335.00     -3.23    -4.31    -0.73      0.2301    -41.05 LEFT    2.8185E-01      1.56  2.4889E-01    155.43
   40.00    335.00      1.50     1.87     4.70      0.1304    -46.28 LEFT    4.8576E-01    -44.62  5.0719E-01    120.51
   45.00    335.00     -2.29    -1.21     1.29      0.2925    -49.20 LEFT    3.1429E-01    173.40  3.5564E-01    -39.49
   50.00    335.00     -4.22    -1.93     0.08      0.0407    -52.50 LEFT    2.5140E-01    113.84  3.2737E-01    -70.98
   55.00    335.00     -2.34     3.77     4.72      0.1718    -65.02 LEFT    3.1241E-01    -29.36  6.3112E-01    125.82
   60.00    335.00     -7.64    -0.29     0.44      0.3151    -73.64 LEFT    1.6958E-01   -170.52  3.9547E-01    -42.84
   65.00    335.00    -11.42    -8.13    -6.46      0.0970    -55.81 RIGHT   1.0985E-01     82.15  1.6044E-01    -85.95
   70.00    335.00    -11.96     3.29     3.42      0.0097    -80.21 LEFT    1.0321E-01    -54.72  5.9716E-01    121.95
   75.00    335.00    -15.82     5.85     5.88      0.0416    -85.92 LEFT    6.6174E-02    157.01  8.0163E-01    -53.45
   80.00    335.00    -20.79     4.98     4.99      0.0498    -89.27 LEFT    3.7325E-02     24.30  7.2573E-01    128.65
   85.00    335.00    -23.93     0.38     0.40      0.0554     88.55 LEFT    2.6013E-02   -115.76  4.2727E-01    -50.29
   90.00    335.00   -999.99  -189.40  -189.40      0.0000      0.00         2.2429E-12   -105.00  1.3860E-10    126.68
   10.00    340.00     -2.12     4.96     5.74      0.0175    -66.15 LEFT    3.2030E-01    -46.08  7.2385E-01    131.20
   15.00    340.00     -2.81     2.75     3.81      0.0316    -62.24 LEFT    2.9581E-01    -55.45  5.6101E-01    120.16
   20.00    340.00     -9.98    -6.67    -5.01      0.0466    -55.70 LEFT    1.2965E-01   -112.91  1.8970E-01     61.37
   25.00    340.00     -0.75     2.41     4.12      0.0982    -55.41 LEFT    3.7491E-01    154.24  5.3948E-01    -37.74
   30.00    340.00      0.06     2.74     4.62      0.0781    -53.82 LEFT    4.1180E-01    131.27  5.6070E-01    -58.10
   35.00    340.00     -4.92    -2.96    -0.82      0.2054    -52.02 LEFT    2.3194E-01      1.96  2.9097E-01    158.12
   40.00    340.00     -0.28     3.30     4.88      0.0984    -56.72 LEFT    3.9586E-01    -44.10  5.9759E-01    123.67
   45.00    340.00     -4.18     0.20     1.55      0.2342    -60.65 LEFT    2.5277E-01    174.09  4.1856E-01    -36.03
   50.00    340.00     -6.26    -0.59     0.45      0.0159    -62.52 LEFT    1.9882E-01    114.80  3.8207E-01    -67.42
   55.00    340.00     -4.56     5.00     5.46      0.1170    -72.68 LEFT    2.4202E-01    -28.00  7.2707E-01    129.34
   60.00    340.00    -10.08     0.81     1.15      0.2143    -79.29 LEFT    1.2819E-01   -168.57  4.4884E-01    -39.45
   65.00    340.00    -14.09    -7.15    -6.35      0.0803    -66.10 RIGHT   8.0755E-02     84.95  1.7942E-01    -82.74
   70.00    340.00    -14.89     4.15     4.20      0.0081    -83.64 LEFT    7.3659E-02    -50.78  6.5904E-01    125.00
   75.00    340.00    -19.00     6.61     6.62      0.0284    -87.48 LEFT    4.5903E-02    162.34  8.7523E-01    -50.55
   80.00    340.00    -24.17     5.68     5.68      0.0316    -89.67 LEFT    2.5292E-02     31.06  7.8615E-01    131.44
   85.00    340.00    -27.44     1.03     1.04      0.0327     88.93 LEFT    1.7363E-02   -107.88  4.6063E-01    -47.56
   90.00    340.00   -999.99  -188.76  -188.76      0.0000      0.00         1.4894E-12    -96.69  1.4918E-10    129.39
   10.00    345.00     -4.46     5.31     5.74      0.0136    -72.01 LEFT    2.4481E-01    -45.98  7.5332E-01    131.37
   15.00    345.00     -5.09     3.21     3.81      0.0243    -69.02 LEFT    2.2747E-01    -55.29  5.9201E-01    120.55
   20.00    345.00    -12.23    -6.06    -5.12      0.0362    -63.89 LEFT    1.0003E-01   -112.72  2.0354E-01     62.04
   25.00    345.00     -3.00     3.16     4.10      0.0772    -64.09 LEFT    2.8932E-01    154.46  5.8859E-01    -36.72
   30.00    345.00     -2.21     3.62     4.63      0.0583    -63.08 LEFT    3.1689E-01    131.53  6.2037E-01    -56.71
   35.00    345.00     -7.25    -2.00    -0.86      0.1651    -62.39 LEFT    1.7746E-01      2.28  3.2484E-01    159.83
   40.00    345.00     -2.68     4.28     5.07      0.0695    -66.07 LEFT    3.0028E-01    -43.68  6.6895E-01    125.65
   45.00    345.00     -6.68     1.15     1.82      0.1715    -69.76 LEFT    1.8951E-01    174.68  4.6696E-01    -33.89
   50.00    345.00     -8.90     0.29     0.78      0.0047    -70.85 LEFT    1.4683E-01    115.66  4.2279E-01    -65.21
   55.00    345.00     -7.35     5.78     5.99      0.0783    -78.36 LEFT    1.7537E-01    -26.73  7.9561E-01    131.54
   60.00    345.00    -13.07     1.48     1.63      0.1426    -83.09 LEFT    9.0770E-02   -166.66  4.8511E-01    -37.31
   65.00    345.00    -17.32    -6.59    -6.23      0.0536    -74.06 RIGHT   5.5671E-02     87.83  1.9158E-01    -80.67
   70.00    345.00    -18.37     4.62     4.64      0.0080    -85.97 LEFT    4.9342E-02    -46.48  6.9616E-01    126.98
   75.00    345.00    -22.71     7.01     7.01      0.0197    -88.51 LEFT    2.9938E-02    168.47  9.1641E-01    -48.64
   80.00    345.00    -28.06     6.02     6.02      0.0197    -89.92 LEFT    1.6169E-02     39.19  8.1782E-01    133.30
   85.00    345.00    -31.42     1.34     1.35      0.0182     89.20 LEFT    1.0980E-02    -98.15  4.7731E-01    -45.74
   90.00    345.00   -999.99  -188.46  -188.46      0.0000      0.00         9.3890E-13    -86.35  1.5438E-10    131.19
   10.00    350.00     -7.85     5.55     5.75      0.0092    -77.95 LEFT    1.6553E-01    -45.91  7.7498E-01    131.50
   15.00    350.00     -8.46     3.55     3.81      0.0165    -75.93 LEFT    1.5444E-01    -55.19  6.1501E-01    120.81
   20.00    350.00    -15.57    -5.63    -5.21      0.0248    -72.39 LEFT    6.8061E-02   -112.58  2.1383E-01     62.50
   25.00    350.00     -6.35     3.69     4.10      0.0532    -72.75 LEFT    1.9682E-01    154.61  6.2505E-01    -36.05
   30.00    350.00     -5.58     4.22     4.65      0.0385    -72.18 LEFT    2.1505E-01    131.71  6.6433E-01    -55.83
   35.00    350.00    -10.66    -1.36    -0.88      0.1145    -72.07 LEFT    1.1988E-01      2.52  3.4948E-01    160.90
   40.00    350.00     -6.15     4.91     5.24      0.0441    -74.55 LEFT    2.0147E-01    -43.35  7.1999E-01    126.87
   45.00    350.00    -10.23     1.76     2.03      0.1114    -77.28 LEFT    1.2598E-01    175.14  5.0079E-01    -32.57
   50.00    350.00    -12.55     0.84     1.03      0.0007    -77.92 LEFT    9.6428E-02    116.34  4.5037E-01    -63.84
   55.00    350.00    -11.14     6.26     6.33      0.0485    -82.82 LEFT    1.1341E-01    -25.69  8.4018E-01    132.92
   60.00    350.00    -17.03     1.88     1.93      0.0877    -85.88 LEFT    5.7585E-02   -165.01  5.0747E-01    -35.95
   65.00    350.00    -21.47    -6.27    -6.14      0.0299    -80.28 RIGHT   3.4530E-02     90.45  1.9858E-01    -79.35
   70.00    350.00    -22.72     4.86     4.87      0.0068    -87.64 LEFT    2.9887E-02    -42.38  7.1567E-01    128.27
   75.00    350.00    -27.24     7.19     7.19      0.0127    -89.19 LEFT    1.7773E-02    174.61  9.3577E-01    -47.40
   80.00    350.00    -32.68     6.16     6.16      0.0114     89.97 LEFT    9.4952E-03     47.57  8.3097E-01    134.51
   85.00    350.00    -36.06     1.46     1.46      0.0092     89.45 LEFT    6.4374E-03    -88.00  4.8352E-01    -44.55
   90.00    350.00   -999.99  -188.36  -188.36      0.0000      0.00         5.5093E-13    -75.53  1.5623E-10    132.38
   10.00    355.00    -13.78     5.70     5.75      0.0046    -83.95 LEFT    8.3644E-02    -45.90  7.8825E-01    131.57
   15.00    355.00    -14.37     3.74     3.81      0.0083    -82.93 LEFT    7.8186E-02    -55.15  6.2917E-01    120.97
   20.00    355.00    -21.48    -5.38    -5.27      0.0126    -81.13 LEFT    3.4481E-02   -112.52  2.2018E-01     62.76
   25.00    355.00    -12.26     3.99     4.09      0.0271    -81.38 LEFT    9.9661E-02    154.69  6.4746E-01    -35.67
   30.00    355.00    -11.51     4.56     4.67      0.0191    -81.13 LEFT    1.0869E-01    131.81  6.9120E-01    -55.34
   35.00    355.00    -16.61    -1.00    -0.88      0.0584    -81.18 LEFT    6.0399E-02      2.66  3.6441E-01    161.50
   40.00    355.00    -12.14     5.27     5.35      0.0214    -82.43 LEFT    1.0105E-01    -43.16  7.5050E-01    127.54
   45.00    355.00    -16.27     2.10     2.16      0.0546    -83.86 LEFT    6.2804E-02    175.43  5.2064E-01    -31.84
   50.00    355.00    -18.66     1.14     1.18      0.0002    -84.16 RIGHT   4.7690E-02    116.78  4.6617E-01    -63.09
   55.00    355.00    -17.34     6.51     6.52      0.0233    -86.58 LEFT    5.5514E-02    -24.99  8.6486E-01    133.68
   60.00    355.00    -23.34     2.08     2.09      0.0418    -88.08 LEFT    2.7826E-02   -163.88  5.1926E-01    -35.19
   65.00    355.00    -27.92    -6.12    -6.10      0.0128    -85.41 RIGHT   1.6433E-02     92.32  2.0201E-01    -78.60
   70.00    355.00    -29.31     4.97     4.97      0.0039    -88.92 LEFT    1.4004E-02    -39.32  7.2428E-01    129.00
   75.00    355.00    -33.92     7.26     7.26      0.0063    -89.65 LEFT    8.2373E-03    179.32  9.4297E-01    -46.68
   80.00    355.00    -39.37     6.20     6.20      0.0052     89.95 LEFT    4.3941E-03     54.09  8.3473E-01    135.21
   85.00    355.00    -42.70     1.48     1.48      0.0037     89.71 LEFT    2.9955E-03    -80.14  4.8477E-01    -43.86
   90.00    355.00   -999.99  -188.34  -188.34      0.0000      0.00         2.5722E-13    -67.20  1.5653E-10    133.07
   10.00    360.00    -59.53     5.75     5.75      0.0001    -89.97 RIGHT   4.3182E-04    -58.65  7.9274E-01    131.59
   15.00    360.00    -62.85     3.81     3.81      0.0001    -89.97 RIGHT   2.9452E-04    -69.98  6.3396E-01    121.03
   20.00    360.00    -73.24    -5.29    -5.29      0.0001    -89.98 RIGHT   8.9022E-05   -129.65  2.2233E-01     62.85
   25.00    360.00    -67.34     4.09     4.09      0.0000    -89.98 RIGHT   1.7554E-04    134.46  6.5503E-01    -35.55
   30.00    360.00    -70.54     4.67     4.67      0.0000    -89.99 RIGHT   1.2152E-04    108.12  7.0024E-01    -55.18
   35.00    360.00    -80.67    -0.88    -0.88      0.0000    -89.99 RIGHT   3.7871E-05    -30.76  3.6941E-01    161.69
   40.00    360.00    -83.16     5.39     5.39      0.0000    -90.00 RIGHT   2.8434E-05   -105.32  7.6064E-01    127.76
   45.00    360.00    -86.53     2.21     2.21      0.0000     90.00 RIGHT   1.9278E-05     32.50  5.2717E-01    -31.61
   50.00    360.00    -82.99     1.23     1.23      0.0000     90.00 RIGHT   2.8972E-05    -52.27  4.7130E-01    -62.84
   55.00    360.00    -77.41     6.59     6.59      0.0000     90.00 RIGHT   5.5111E-05    157.86  8.7270E-01    133.93
   60.00    360.00    -80.01     2.14     2.14      0.0001     90.00 RIGHT   4.0850E-05     13.40  5.2290E-01    -34.94
   65.00    360.00    -81.75    -6.08    -6.08      0.0000     89.99 LEFT    3.3414E-05    -95.96  2.0302E-01    -78.35
   70.00    360.00    -80.60     4.99     4.99      0.0000     90.00 LINEAR  3.8144E-05    125.52  7.2659E-01    129.24
   75.00    360.00    -83.03     7.27     7.27      0.0000     90.00 RIGHT   2.8855E-05    -24.27  9.4459E-01    -46.44
   80.00    360.00    -87.01     6.20     6.20      0.0000     90.00 RIGHT   1.8251E-05   -158.63  8.3525E-01    135.44
   85.00    360.00    -89.50     1.48     1.48      0.0000    -90.00 RIGHT   1.3698E-05     60.10  4.8475E-01    -43.63
   90.00    360.00   -999.99  -188.34  -188.34      0.0000      0.00         1.2572E-15     71.86  1.5649E-10    133.29



  DATA CARD No:   5 EN   0     0     0     0  0.00000E+00  0.00000E+00  0.00000E+00  0.00000E+00  0.00000E+00  0.00000E+00

  TOTAL RUN TIME: 40 msec